
This summary file was generated by TurbSim on 21-Mar-2024 at 18:13:15.


Runtime Options:

   1000000  Random seed #1
    RANLUX  Type of random number generator
         F  Output binary HH turbulence parameters?
         F  Output formatted turbulence parameters?
         F  Output AeroDyn HH files?
         T  Output AeroDyn FF files?
         T  Output BLADED FF files?
         F  Output tower data?
         F  Output formatted FF files?
         F  Output coherent turbulence time step file?
         T  Clockwise rotation when looking downwind?
 0 -  NONE  IEC turbulence models scaled to exact specified standard deviation


Turbine/Model Specifications:

        30  Vertical grid-point matrix dimension
        30  Horizontal grid-point matrix dimension
     0.100  Time step [seconds]
   693.000  Analysis time [seconds]
   693.000  Usable output time [seconds]
   140.000  Hub height [m]
   275.000  Grid height [m]
   275.000  Grid width [m]
     0.000  Vertical flow angle [degrees]
     0.000  Horizontal flow angle [degrees]


Meteorological Boundary Conditions:

    IECKAI  IEC Kaimal spectral model
         1  IEC standard: IEC 61400-1 Ed. 3: 2005
         A  IEC turbulence characteristic
       NTM  IEC Normal Turbulence Model
       N/A  IEC Extreme Turbulence Model (ETM) "c" parameter [m/s]
       IEC  Wind profile type
   110.000  Reference height [m]
    13.000  Reference wind speed [m/s]
       N/A  Jet height [m]
     0.200  Power law exponent
     0.030  Surface roughness length [m]


Non-IEC Meteorological Boundary Conditions:

       N/A  Site latitude [degrees]
       N/A  Gradient Richardson number
       N/A  Friction or shear velocity [m/s]
       N/A  Mixing layer depth [m]
       N/A  Mean hub u'w' Reynolds stress
       N/A  Mean hub u'v' Reynolds stress
       N/A  Mean hub v'w' Reynolds stress


Spatial Coherence Models:

       IEC  u-component coherence model
      NONE  v-component coherence model
      NONE  w-component coherence model
(   12.000, 0.353E-03)  u-component coherence parameters
                   N/A  v-component coherence parameters
                   N/A  w-component coherence parameters
       N/A  Coherence exponent


You have requested that the following file(s) be generated:

   G:\2024\Qbladed\QBladeCE_2.0.6.4\TEMP\Test.bts (AeroDyn/TurbSim full-field wind file)
   G:\2024\Qbladed\QBladeCE_2.0.6.4\TEMP\Test.wnd (AeroDyn/BLADED full-field wnd file)


Turbulence Simulation Scaling Parameter Summary:

   Turbulence model used                            =  IEC Kaimal
   Turbulence characteristic                        =  A
   IEC turbulence type                              =  Normal Turbulence Model
   IEC standard                                     =  IEC 61400-1 Ed. 3: 2005
   Mean wind speed at hub height                    =   13.642 m/s
   Expected value of turbulence intensity at 15 m/s =   16.000%
   Characteristic value of standard deviation       =    2.533 m/s
   Turbulence scale                                 =   42.000 m
   u-component integral scale                       =  340.200 m
   Coherency scale                                  =  340.200 m
   Characteristic value of hub turbulence intensity =   18.568%
   Gradient Richardson number                       =    0.000

   Wind profile type                                =  Power law on rotor disk, logarithmic elsewhere
   Power law exponent                               =    0.200
   Mean shear across rotor disk                     =    0.035 (m/s)/m
   Assumed rotor diameter                           =  275.000 m
   Surface roughness length                         =    0.030 m

   Nyquist frequency of turbulent wind field        =    5.000 Hz

   Number of time steps in the FFT                  =     7140
   Number of time steps output                      =     7132
   Number of points simulated                       =      901


Mean Flow Angles:

   Vertical   =   0.0 degrees
   Horizontal =   0.0 degrees

Mean Wind Speed Profile:

   Height    Wind Speed   Horizontal Angle  Vertical Angle  U-comp (X)   V-comp (Y)   W-comp (Z)
     (m)        (m/s)         (degrees)       (degrees)       (m/s)        (m/s)        (m/s)   
   ------    ----------   ----------------  --------------  ----------   ----------   ----------
    277.5       15.64            0.00            0.00         15.64         0.00         0.00
    268.0       15.53            0.00            0.00         15.53         0.00         0.00
    258.5       15.42            0.00            0.00         15.42         0.00         0.00
    249.1       15.31            0.00            0.00         15.31         0.00         0.00
    239.6       15.19            0.00            0.00         15.19         0.00         0.00
    230.1       15.07            0.00            0.00         15.07         0.00         0.00
    220.6       14.94            0.00            0.00         14.94         0.00         0.00
    211.1       14.81            0.00            0.00         14.81         0.00         0.00
    201.6       14.68            0.00            0.00         14.68         0.00         0.00
    192.2       14.53            0.00            0.00         14.53         0.00         0.00
    182.7       14.39            0.00            0.00         14.39         0.00         0.00
    173.2       14.24            0.00            0.00         14.24         0.00         0.00
    163.7       14.08            0.00            0.00         14.08         0.00         0.00
    154.2       13.91            0.00            0.00         13.91         0.00         0.00
    144.7       13.73            0.00            0.00         13.73         0.00         0.00
    140.0       13.64            0.00            0.00         13.64         0.00         0.00
    135.3       13.55            0.00            0.00         13.55         0.00         0.00
    125.8       13.35            0.00            0.00         13.35         0.00         0.00
    116.3       13.15            0.00            0.00         13.15         0.00         0.00
    106.8       12.92            0.00            0.00         12.92         0.00         0.00
     97.3       12.69            0.00            0.00         12.69         0.00         0.00
     87.8       12.43            0.00            0.00         12.43         0.00         0.00
     78.4       12.15            0.00            0.00         12.15         0.00         0.00
     68.9       11.84            0.00            0.00         11.84         0.00         0.00
     59.4       11.49            0.00            0.00         11.49         0.00         0.00
     49.9       11.10            0.00            0.00         11.10         0.00         0.00
     40.4       10.64            0.00            0.00         10.64         0.00         0.00
     30.9       10.09            0.00            0.00         10.09         0.00         0.00
     21.5        9.38            0.00            0.00          9.38         0.00         0.00
     12.0        8.34            0.00            0.00          8.34         0.00         0.00
      2.5        6.10            0.00            0.00          6.10         0.00         0.00


Harvested Random Seeds after Generation of the Random Numbers:

     89661839 K 1
            0 K 2


Hub-Height Simulated Turbulence Statistical Summary:

   Type of Wind        Min (m/s)   Mean (m/s)    Max (m/s)  Sigma (m/s)       TI (%)
   ----------------    ---------   ----------    ---------  -----------       ------
   Longitudinal (u)         5.37        13.64        21.97        2.794       20.478
   Lateral (v)             -6.46        -0.00         7.02        1.977       14.493
   Vertical (w)            -4.05         0.00         4.58        1.222        8.955
   U component              5.37        13.64        21.97        2.794       20.478
   V component             -6.46        -0.00         7.02        1.977       14.493
   W component             -4.05         0.00         4.58        1.222        8.955
   Horizontal (U&V)         5.99        13.79        21.97        2.780       20.159
   Total                    6.03        13.84        21.98        2.773       20.029

                       Min Reynolds     Mean Reynolds    Max Reynolds    Correlation
   Product             Stress (m/s)^2   Stress (m/s)^2   Stress (m/s)^2  Coefficient
   ----------------    --------------   --------------   --------------  -----------
   u'w'                    -18.543            -0.096            21.430        -0.028
   u'v'                    -36.623            -0.716            27.588        -0.130
   v'w'                    -16.788            -0.039            17.385        -0.016


   Friction Velocity (Ustar)  =      0.310 m/s
   Maximum Instantaneous TKE  =     41.419 (m/s)^2
   Maximum Instantaneous CTKE =     18.321 (m/s)^2


Grid Point Variance Summary:

   Y-coord -137.50 -128.02 -118.53 -109.05  -99.57  -90.09  -80.60  -71.12  -61.64  -52.16  -42.67  -33.19  -23.71  -14.22   -4.74    4.74   14.22   23.71   33.19   42.67   52.16   61.64   71.12   80.60   90.09   99.57  109.05  118.53  128.02  137.50

   Height   Standard deviation at grid points for the u component:
   277.50    2.631   2.440   2.390   2.345   2.547   2.538   2.562   2.540   2.388   2.486   2.405   2.287   2.189   2.241   2.056   2.219   2.058   2.188   2.233   2.257   2.205   2.150   2.174   2.246   2.313   2.398   2.452   2.547   2.595   2.468
   268.02    2.566   2.463   2.359   2.526   2.580   2.475   2.456   2.575   2.484   2.431   2.476   2.325   2.114   2.201   2.280   2.214   2.314   2.251   2.351   2.269   2.252   2.240   2.374   2.114   2.179   2.363   2.236   2.419   2.449   2.505
   258.53    2.503   2.242   2.457   2.575   2.657   2.697   2.650   2.340   2.384   2.410   2.357   2.437   2.250   2.267   2.273   2.192   2.275   2.303   2.335   2.262   2.184   2.284   2.447   2.385   2.312   2.449   2.317   2.428   2.426   2.374
   249.05    2.652   2.455   2.579   2.564   2.755   2.639   2.508   2.369   2.330   2.335   2.341   2.379   2.373   2.419   2.341   2.265   2.270   2.232   2.153   2.213   2.154   2.183   2.367   2.413   2.312   2.381   2.293   2.341   2.310   2.254
   239.57    2.418   2.632   2.617   2.777   2.676   2.586   2.449   2.265   2.334   2.326   2.428   2.337   2.397   2.367   2.274   2.177   2.112   2.042   2.236   2.133   2.106   2.093   2.241   2.429   2.266   2.237   2.205   2.238   2.147   2.317
   230.09    2.585   2.596   2.750   2.734   2.762   2.540   2.238   2.184   2.209   2.212   2.356   2.313   2.446   2.409   2.320   2.143   2.169   2.237   2.286   2.169   2.020   2.228   2.281   2.280   2.489   2.189   2.146   2.112   2.216   2.369
   220.60    2.615   2.583   2.670   2.727   2.686   2.563   2.124   2.155   2.149   2.247   2.423   2.352   2.434   2.401   2.329   2.355   2.255   2.158   2.353   2.393   2.166   2.247   2.285   2.459   2.394   2.402   2.272   2.181   2.375   2.464
   211.12    2.600   2.810   2.548   2.586   2.628   2.453   2.215   2.241   2.354   2.466   2.579   2.469   2.339   2.338   2.479   2.422   2.320   2.366   2.353   2.145   2.139   2.222   2.385   2.519   2.409   2.345   2.431   2.436   2.475   2.475
   201.64    2.580   2.541   2.549   2.605   2.546   2.483   2.221   2.162   2.368   2.540   2.456   2.404   2.270   2.089   2.288   2.330   2.434   2.261   2.305   2.356   2.252   2.351   2.337   2.313   2.305   2.538   2.430   2.334   2.355   2.314
   192.16    2.452   2.424   2.511   2.460   2.453   2.331   2.358   2.297   2.362   2.556   2.443   2.513   2.382   2.198   2.280   2.313   2.322   2.160   2.182   2.227   2.120   2.322   2.257   2.203   2.265   2.376   2.394   2.224   2.352   2.325
   182.67    2.453   2.488   2.554   2.681   2.640   2.324   2.260   2.548   2.429   2.444   2.458   2.342   2.347   2.263   2.215   2.255   2.267   2.099   2.184   2.185   2.178   2.122   2.153   2.134   2.166   2.127   2.102   2.262   2.309   2.317
   173.19    2.493   2.511   2.601   2.641   2.643   2.488   2.327   2.364   2.415   2.497   2.463   2.416   2.307   2.248   2.350   2.302   2.490   2.222   2.137   2.217   2.153   2.090   2.064   2.134   2.210   2.212   2.147   2.179   2.424   2.527
   163.71    2.617   2.600   2.505   2.512   2.524   2.384   2.393   2.321   2.297   2.381   2.300   2.240   2.149   2.310   2.468   2.353   2.453   2.301   2.225   2.281   2.367   2.281   2.269   2.269   2.314   2.384   2.282   2.255   2.390   2.455
   154.22    2.519   2.564   2.600   2.610   2.397   2.436   2.147   2.187   2.305   2.393   2.255   2.340   2.282   2.376   2.418   2.531   2.444   2.330   2.420   2.507   2.448   2.252   2.366   2.402   2.459   2.308   2.400   2.365   2.373   2.344
   144.74    2.633   2.530   2.544   2.440   2.505   2.352   2.292   2.176   2.316   2.364   2.445   2.331   2.532   2.703   2.705   2.649   2.459   2.352   2.309   2.355   2.324   2.384   2.507   2.376   2.321   2.252   2.374   2.395   2.342   2.473
   135.26    2.574   2.278   2.501   2.551   2.624   2.454   2.324   2.212   2.126   2.340   2.274   2.404   2.471   2.716   2.573   2.755   2.441   2.415   2.300   2.260   2.286   2.299   2.290   2.217   2.183   2.227   2.229   2.395   2.442   2.492
   125.78    2.417   2.376   2.455   2.506   2.488   2.543   2.421   2.213   2.146   2.315   2.410   2.365   2.494   2.585   2.611   2.558   2.666   2.490   2.582   2.307   2.291   2.276   2.293   2.187   2.173   2.081   2.231   2.389   2.391   2.286
   116.29    2.526   2.354   2.340   2.453   2.573   2.583   2.364   2.225   2.329   2.223   2.241   2.329   2.470   2.535   2.407   2.545   2.482   2.670   2.454   2.473   2.226   2.191   2.364   2.333   2.180   2.182   2.218   2.422   2.306   2.286
   106.81    2.503   2.329   2.386   2.533   2.451   2.532   2.546   2.257   2.333   2.331   2.330   2.446   2.393   2.523   2.483   2.405   2.425   2.379   2.540   2.322   2.431   2.208   2.355   2.370   2.213   2.164   2.406   2.404   2.222   2.304
    97.33    2.429   2.419   2.495   2.536   2.437   2.501   2.523   2.409   2.486   2.342   2.360   2.427   2.514   2.498   2.375   2.431   2.434   2.402   2.310   2.415   2.347   2.340   2.340   2.402   2.239   2.351   2.414   2.427   2.322   2.425
    87.84    2.461   2.423   2.521   2.528   2.417   2.592   2.571   2.630   2.407   2.342   2.344   2.437   2.371   2.396   2.280   2.325   2.231   2.142   2.124   2.071   2.103   2.383   2.613   2.421   2.288   2.285   2.340   2.341   2.460   2.428
    78.36    2.608   2.451   2.535   2.530   2.451   2.386   2.249   2.494   2.456   2.419   2.197   2.295   2.221   2.368   2.394   2.298   2.258   2.018   2.046   2.123   2.261   2.377   2.569   2.421   2.450   2.348   2.432   2.351   2.280   2.455
    68.88    2.524   2.337   2.224   2.315   2.436   2.359   2.296   2.321   2.289   2.293   2.161   2.111   2.295   2.390   2.423   2.283   2.252   2.280   2.432   2.334   2.324   2.387   2.455   2.603   2.486   2.487   2.505   2.492   2.523   2.413
    59.40    2.316   2.273   2.270   2.186   2.384   2.338   2.411   2.210   2.159   2.080   2.059   2.193   2.275   2.377   2.465   2.405   2.241   2.465   2.269   2.207   2.395   2.454   2.486   2.516   2.559   2.542   2.540   2.552   2.513   2.493
    49.91    2.393   2.313   2.025   2.020   2.345   2.357   2.216   2.198   2.146   2.197   2.193   2.153   2.173   2.214   2.332   2.266   2.265   2.313   2.323   2.158   2.287   2.447   2.455   2.741   2.777   2.790   2.660   2.684   2.474   2.428
    40.43    2.338   2.054   2.079   2.128   2.190   2.262   2.176   2.078   2.156   2.326   2.417   2.238   2.259   2.224   2.222   2.316   2.332   2.319   2.193   2.191   2.250   2.304   2.484   2.673   2.673   2.736   2.622   2.618   2.510   2.530
    30.95    2.411   2.380   2.242   2.194   2.268   2.322   2.217   2.037   2.330   2.423   2.408   2.438   2.340   2.404   2.112   2.111   2.153   2.283   2.251   2.244   2.152   2.255   2.471   2.635   2.705   2.694   2.663   2.486   2.494   2.407
    21.47    2.318   2.372   2.391   2.213   2.219   2.241   2.249   2.229   2.384   2.622   2.433   2.452   2.317   2.218   2.217   2.024   2.015   2.180   2.280   2.266   2.214   2.025   2.251   2.540   2.567   2.448   2.486   2.467   2.627   2.470
    11.98    2.369   2.312   2.268   2.284   2.289   2.301   2.290   2.276   2.293   2.458   2.507   2.455   2.450   2.368   2.235   2.075   2.001   2.029   2.234   2.216   2.203   2.187   2.181   2.275   2.401   2.522   2.493   2.474   2.682   2.483
     2.50    2.432   2.327   2.320   2.198   2.274   2.229   2.271   2.342   2.377   2.507   2.387   2.372   2.332   2.280   2.122   2.082   2.141   2.086   2.239   2.297   2.135   2.168   2.143   2.218   2.304   2.407   2.544   2.459   2.491   2.513

   Height   Standard deviation at grid points for the v component:
   277.50    1.977   1.977   1.977   1.977   1.977   1.977   1.977   1.977   1.977   1.977   1.977   1.977   1.977   1.977   1.977   1.977   1.977   1.977   1.977   1.977   1.977   1.977   1.977   1.977   1.977   1.977   1.977   1.977   1.977   1.977
   268.02    1.977   1.977   1.977   1.977   1.977   1.977   1.977   1.977   1.977   1.977   1.977   1.977   1.977   1.977   1.977   1.977   1.977   1.977   1.977   1.977   1.977   1.977   1.977   1.977   1.977   1.977   1.977   1.977   1.977   1.977
   258.53    1.977   1.977   1.977   1.977   1.977   1.977   1.977   1.977   1.977   1.977   1.977   1.977   1.977   1.977   1.977   1.977   1.977   1.977   1.977   1.977   1.977   1.977   1.977   1.977   1.977   1.977   1.977   1.977   1.977   1.977
   249.05    1.977   1.977   1.977   1.977   1.977   1.977   1.977   1.977   1.977   1.977   1.977   1.977   1.977   1.977   1.977   1.977   1.977   1.977   1.977   1.977   1.977   1.977   1.977   1.977   1.977   1.977   1.977   1.977   1.977   1.977
   239.57    1.977   1.977   1.977   1.977   1.977   1.977   1.977   1.977   1.977   1.977   1.977   1.977   1.977   1.977   1.977   1.977   1.977   1.977   1.977   1.977   1.977   1.977   1.977   1.977   1.977   1.977   1.977   1.977   1.977   1.977
   230.09    1.977   1.977   1.977   1.977   1.977   1.977   1.977   1.977   1.977   1.977   1.977   1.977   1.977   1.977   1.977   1.977   1.977   1.977   1.977   1.977   1.977   1.977   1.977   1.977   1.977   1.977   1.977   1.977   1.977   1.977
   220.60    1.977   1.977   1.977   1.977   1.977   1.977   1.977   1.977   1.977   1.977   1.977   1.977   1.977   1.977   1.977   1.977   1.977   1.977   1.977   1.977   1.977   1.977   1.977   1.977   1.977   1.977   1.977   1.977   1.977   1.977
   211.12    1.977   1.977   1.977   1.977   1.977   1.977   1.977   1.977   1.977   1.977   1.977   1.977   1.977   1.977   1.977   1.977   1.977   1.977   1.977   1.977   1.977   1.977   1.977   1.977   1.977   1.977   1.977   1.977   1.977   1.977
   201.64    1.977   1.977   1.977   1.977   1.977   1.977   1.977   1.977   1.977   1.977   1.977   1.977   1.977   1.977   1.977   1.977   1.977   1.977   1.977   1.977   1.977   1.977   1.977   1.977   1.977   1.977   1.977   1.977   1.977   1.977
   192.16    1.977   1.977   1.977   1.977   1.977   1.977   1.977   1.977   1.977   1.977   1.977   1.977   1.977   1.977   1.977   1.977   1.977   1.977   1.977   1.977   1.977   1.977   1.977   1.977   1.977   1.977   1.977   1.977   1.977   1.977
   182.67    1.977   1.977   1.977   1.977   1.977   1.977   1.977   1.977   1.977   1.977   1.977   1.977   1.977   1.977   1.977   1.977   1.977   1.977   1.977   1.977   1.977   1.977   1.977   1.977   1.977   1.977   1.977   1.977   1.977   1.977
   173.19    1.977   1.977   1.977   1.977   1.977   1.977   1.977   1.977   1.977   1.977   1.977   1.977   1.977   1.977   1.977   1.977   1.977   1.977   1.977   1.977   1.977   1.977   1.977   1.977   1.977   1.977   1.977   1.977   1.977   1.977
   163.71    1.977   1.977   1.977   1.977   1.977   1.977   1.977   1.977   1.977   1.977   1.977   1.977   1.977   1.977   1.977   1.977   1.977   1.977   1.977   1.977   1.977   1.977   1.977   1.977   1.977   1.977   1.977   1.977   1.977   1.977
   154.22    1.977   1.977   1.977   1.977   1.977   1.977   1.977   1.977   1.977   1.977   1.977   1.977   1.977   1.977   1.977   1.977   1.977   1.977   1.977   1.977   1.977   1.977   1.977   1.977   1.977   1.977   1.977   1.977   1.977   1.977
   144.74    1.977   1.977   1.977   1.977   1.977   1.977   1.977   1.977   1.977   1.977   1.977   1.977   1.977   1.977   1.977   1.977   1.977   1.977   1.977   1.977   1.977   1.977   1.977   1.977   1.977   1.977   1.977   1.977   1.977   1.977
   135.26    1.977   1.977   1.977   1.977   1.977   1.977   1.977   1.977   1.977   1.977   1.977   1.977   1.977   1.977   1.977   1.977   1.977   1.977   1.977   1.977   1.977   1.977   1.977   1.977   1.977   1.977   1.977   1.977   1.977   1.977
   125.78    1.977   1.977   1.977   1.977   1.977   1.977   1.977   1.977   1.977   1.977   1.977   1.977   1.977   1.977   1.977   1.977   1.977   1.977   1.977   1.977   1.977   1.977   1.977   1.977   1.977   1.977   1.977   1.977   1.977   1.977
   116.29    1.977   1.977   1.977   1.977   1.977   1.977   1.977   1.977   1.977   1.977   1.977   1.977   1.977   1.977   1.977   1.977   1.977   1.977   1.977   1.977   1.977   1.977   1.977   1.977   1.977   1.977   1.977   1.977   1.977   1.977
   106.81    1.977   1.977   1.977   1.977   1.977   1.977   1.977   1.977   1.977   1.977   1.977   1.977   1.977   1.977   1.977   1.977   1.977   1.977   1.977   1.977   1.977   1.977   1.977   1.977   1.977   1.977   1.977   1.977   1.977   1.977
    97.33    1.977   1.977   1.977   1.977   1.977   1.977   1.977   1.977   1.977   1.977   1.977   1.977   1.977   1.977   1.977   1.977   1.977   1.977   1.977   1.977   1.977   1.977   1.977   1.977   1.977   1.977   1.977   1.977   1.977   1.977
    87.84    1.977   1.977   1.977   1.977   1.977   1.977   1.977   1.977   1.977   1.977   1.977   1.977   1.977   1.977   1.977   1.977   1.977   1.977   1.977   1.977   1.977   1.977   1.977   1.977   1.977   1.977   1.977   1.977   1.977   1.977
    78.36    1.977   1.977   1.977   1.977   1.977   1.977   1.977   1.977   1.977   1.977   1.977   1.977   1.977   1.977   1.977   1.977   1.977   1.977   1.977   1.977   1.977   1.977   1.977   1.977   1.977   1.977   1.977   1.977   1.977   1.977
    68.88    1.977   1.977   1.977   1.977   1.977   1.977   1.977   1.977   1.977   1.977   1.977   1.977   1.977   1.977   1.977   1.977   1.977   1.977   1.977   1.977   1.977   1.977   1.977   1.977   1.977   1.977   1.977   1.977   1.977   1.977
    59.40    1.977   1.977   1.977   1.977   1.977   1.977   1.977   1.977   1.977   1.977   1.977   1.977   1.977   1.977   1.977   1.977   1.977   1.977   1.977   1.977   1.977   1.977   1.977   1.977   1.977   1.977   1.977   1.977   1.977   1.977
    49.91    1.977   1.977   1.977   1.977   1.977   1.977   1.977   1.977   1.977   1.977   1.977   1.977   1.977   1.977   1.977   1.977   1.977   1.977   1.977   1.977   1.977   1.977   1.977   1.977   1.977   1.977   1.977   1.977   1.977   1.977
    40.43    1.977   1.977   1.977   1.977   1.977   1.977   1.977   1.977   1.977   1.977   1.977   1.977   1.977   1.977   1.977   1.977   1.977   1.977   1.977   1.977   1.977   1.977   1.977   1.977   1.977   1.977   1.977   1.977   1.977   1.977
    30.95    1.977   1.977   1.977   1.977   1.977   1.977   1.977   1.977   1.977   1.977   1.977   1.977   1.977   1.977   1.977   1.977   1.977   1.977   1.977   1.977   1.977   1.977   1.977   1.977   1.977   1.977   1.977   1.977   1.977   1.977
    21.47    1.977   1.977   1.977   1.977   1.977   1.977   1.977   1.977   1.977   1.977   1.977   1.977   1.977   1.977   1.977   1.977   1.977   1.977   1.977   1.977   1.977   1.977   1.977   1.977   1.977   1.977   1.977   1.977   1.977   1.977
    11.98    1.977   1.977   1.977   1.977   1.977   1.977   1.977   1.977   1.977   1.977   1.977   1.977   1.977   1.977   1.977   1.977   1.977   1.977   1.977   1.977   1.977   1.977   1.977   1.977   1.977   1.977   1.977   1.977   1.977   1.977
     2.50    1.977   1.977   1.977   1.977   1.977   1.977   1.977   1.977   1.977   1.977   1.977   1.977   1.977   1.977   1.977   1.977   1.977   1.977   1.977   1.977   1.977   1.977   1.977   1.977   1.977   1.977   1.977   1.977   1.977   1.977

   Height   Standard deviation at grid points for the w component:
   277.50    1.222   1.222   1.222   1.222   1.222   1.222   1.222   1.222   1.222   1.222   1.222   1.222   1.222   1.222   1.222   1.222   1.222   1.222   1.222   1.222   1.222   1.222   1.222   1.222   1.222   1.222   1.222   1.222   1.222   1.222
   268.02    1.222   1.222   1.222   1.222   1.222   1.222   1.222   1.222   1.222   1.222   1.222   1.222   1.222   1.222   1.222   1.222   1.222   1.222   1.222   1.222   1.222   1.222   1.222   1.222   1.222   1.222   1.222   1.222   1.222   1.222
   258.53    1.222   1.222   1.222   1.222   1.222   1.222   1.222   1.222   1.222   1.222   1.222   1.222   1.222   1.222   1.222   1.222   1.222   1.222   1.222   1.222   1.222   1.222   1.222   1.222   1.222   1.222   1.222   1.222   1.222   1.222
   249.05    1.222   1.222   1.222   1.222   1.222   1.222   1.222   1.222   1.222   1.222   1.222   1.222   1.222   1.222   1.222   1.222   1.222   1.222   1.222   1.222   1.222   1.222   1.222   1.222   1.222   1.222   1.222   1.222   1.222   1.222
   239.57    1.222   1.222   1.222   1.222   1.222   1.222   1.222   1.222   1.222   1.222   1.222   1.222   1.222   1.222   1.222   1.222   1.222   1.222   1.222   1.222   1.222   1.222   1.222   1.222   1.222   1.222   1.222   1.222   1.222   1.222
   230.09    1.222   1.222   1.222   1.222   1.222   1.222   1.222   1.222   1.222   1.222   1.222   1.222   1.222   1.222   1.222   1.222   1.222   1.222   1.222   1.222   1.222   1.222   1.222   1.222   1.222   1.222   1.222   1.222   1.222   1.222
   220.60    1.222   1.222   1.222   1.222   1.222   1.222   1.222   1.222   1.222   1.222   1.222   1.222   1.222   1.222   1.222   1.222   1.222   1.222   1.222   1.222   1.222   1.222   1.222   1.222   1.222   1.222   1.222   1.222   1.222   1.222
   211.12    1.222   1.222   1.222   1.222   1.222   1.222   1.222   1.222   1.222   1.222   1.222   1.222   1.222   1.222   1.222   1.222   1.222   1.222   1.222   1.222   1.222   1.222   1.222   1.222   1.222   1.222   1.222   1.222   1.222   1.222
   201.64    1.222   1.222   1.222   1.222   1.222   1.222   1.222   1.222   1.222   1.222   1.222   1.222   1.222   1.222   1.222   1.222   1.222   1.222   1.222   1.222   1.222   1.222   1.222   1.222   1.222   1.222   1.222   1.222   1.222   1.222
   192.16    1.222   1.222   1.222   1.222   1.222   1.222   1.222   1.222   1.222   1.222   1.222   1.222   1.222   1.222   1.222   1.222   1.222   1.222   1.222   1.222   1.222   1.222   1.222   1.222   1.222   1.222   1.222   1.222   1.222   1.222
   182.67    1.222   1.222   1.222   1.222   1.222   1.222   1.222   1.222   1.222   1.222   1.222   1.222   1.222   1.222   1.222   1.222   1.222   1.222   1.222   1.222   1.222   1.222   1.222   1.222   1.222   1.222   1.222   1.222   1.222   1.222
   173.19    1.222   1.222   1.222   1.222   1.222   1.222   1.222   1.222   1.222   1.222   1.222   1.222   1.222   1.222   1.222   1.222   1.222   1.222   1.222   1.222   1.222   1.222   1.222   1.222   1.222   1.222   1.222   1.222   1.222   1.222
   163.71    1.222   1.222   1.222   1.222   1.222   1.222   1.222   1.222   1.222   1.222   1.222   1.222   1.222   1.222   1.222   1.222   1.222   1.222   1.222   1.222   1.222   1.222   1.222   1.222   1.222   1.222   1.222   1.222   1.222   1.222
   154.22    1.222   1.222   1.222   1.222   1.222   1.222   1.222   1.222   1.222   1.222   1.222   1.222   1.222   1.222   1.222   1.222   1.222   1.222   1.222   1.222   1.222   1.222   1.222   1.222   1.222   1.222   1.222   1.222   1.222   1.222
   144.74    1.222   1.222   1.222   1.222   1.222   1.222   1.222   1.222   1.222   1.222   1.222   1.222   1.222   1.222   1.222   1.222   1.222   1.222   1.222   1.222   1.222   1.222   1.222   1.222   1.222   1.222   1.222   1.222   1.222   1.222
   135.26    1.222   1.222   1.222   1.222   1.222   1.222   1.222   1.222   1.222   1.222   1.222   1.222   1.222   1.222   1.222   1.222   1.222   1.222   1.222   1.222   1.222   1.222   1.222   1.222   1.222   1.222   1.222   1.222   1.222   1.222
   125.78    1.222   1.222   1.222   1.222   1.222   1.222   1.222   1.222   1.222   1.222   1.222   1.222   1.222   1.222   1.222   1.222   1.222   1.222   1.222   1.222   1.222   1.222   1.222   1.222   1.222   1.222   1.222   1.222   1.222   1.222
   116.29    1.222   1.222   1.222   1.222   1.222   1.222   1.222   1.222   1.222   1.222   1.222   1.222   1.222   1.222   1.222   1.222   1.222   1.222   1.222   1.222   1.222   1.222   1.222   1.222   1.222   1.222   1.222   1.222   1.222   1.222
   106.81    1.222   1.222   1.222   1.222   1.222   1.222   1.222   1.222   1.222   1.222   1.222   1.222   1.222   1.222   1.222   1.222   1.222   1.222   1.222   1.222   1.222   1.222   1.222   1.222   1.222   1.222   1.222   1.222   1.222   1.222
    97.33    1.222   1.222   1.222   1.222   1.222   1.222   1.222   1.222   1.222   1.222   1.222   1.222   1.222   1.222   1.222   1.222   1.222   1.222   1.222   1.222   1.222   1.222   1.222   1.222   1.222   1.222   1.222   1.222   1.222   1.222
    87.84    1.222   1.222   1.222   1.222   1.222   1.222   1.222   1.222   1.222   1.222   1.222   1.222   1.222   1.222   1.222   1.222   1.222   1.222   1.222   1.222   1.222   1.222   1.222   1.222   1.222   1.222   1.222   1.222   1.222   1.222
    78.36    1.222   1.222   1.222   1.222   1.222   1.222   1.222   1.222   1.222   1.222   1.222   1.222   1.222   1.222   1.222   1.222   1.222   1.222   1.222   1.222   1.222   1.222   1.222   1.222   1.222   1.222   1.222   1.222   1.222   1.222
    68.88    1.222   1.222   1.222   1.222   1.222   1.222   1.222   1.222   1.222   1.222   1.222   1.222   1.222   1.222   1.222   1.222   1.222   1.222   1.222   1.222   1.222   1.222   1.222   1.222   1.222   1.222   1.222   1.222   1.222   1.222
    59.40    1.222   1.222   1.222   1.222   1.222   1.222   1.222   1.222   1.222   1.222   1.222   1.222   1.222   1.222   1.222   1.222   1.222   1.222   1.222   1.222   1.222   1.222   1.222   1.222   1.222   1.222   1.222   1.222   1.222   1.222
    49.91    1.222   1.222   1.222   1.222   1.222   1.222   1.222   1.222   1.222   1.222   1.222   1.222   1.222   1.222   1.222   1.222   1.222   1.222   1.222   1.222   1.222   1.222   1.222   1.222   1.222   1.222   1.222   1.222   1.222   1.222
    40.43    1.222   1.222   1.222   1.222   1.222   1.222   1.222   1.222   1.222   1.222   1.222   1.222   1.222   1.222   1.222   1.222   1.222   1.222   1.222   1.222   1.222   1.222   1.222   1.222   1.222   1.222   1.222   1.222   1.222   1.222
    30.95    1.222   1.222   1.222   1.222   1.222   1.222   1.222   1.222   1.222   1.222   1.222   1.222   1.222   1.222   1.222   1.222   1.222   1.222   1.222   1.222   1.222   1.222   1.222   1.222   1.222   1.222   1.222   1.222   1.222   1.222
    21.47    1.222   1.222   1.222   1.222   1.222   1.222   1.222   1.222   1.222   1.222   1.222   1.222   1.222   1.222   1.222   1.222   1.222   1.222   1.222   1.222   1.222   1.222   1.222   1.222   1.222   1.222   1.222   1.222   1.222   1.222
    11.98    1.222   1.222   1.222   1.222   1.222   1.222   1.222   1.222   1.222   1.222   1.222   1.222   1.222   1.222   1.222   1.222   1.222   1.222   1.222   1.222   1.222   1.222   1.222   1.222   1.222   1.222   1.222   1.222   1.222   1.222
     2.50    1.222   1.222   1.222   1.222   1.222   1.222   1.222   1.222   1.222   1.222   1.222   1.222   1.222   1.222   1.222   1.222   1.222   1.222   1.222   1.222   1.222   1.222   1.222   1.222   1.222   1.222   1.222   1.222   1.222   1.222

   Mean standard deviation across all grid points:
      u component:    2.361 m/s
      v component:    1.977 m/s
      w component:    1.222 m/s


U-component (X) statistics from the interpolated hub point:

   Mean =  13.6411 m/s
   TI   =  17.8934 %


Normalizing Parameters for Binary Data (approximate statistics):

   UBar  =  13.6424 m/s
   TI(u) =  20.4776 %
   TI(v) =  14.4933 %
   TI(w) =   8.9553 %

   Height Offset =   0.0000 m
   Grid Base     =   2.5000 m



Processing complete.  19 CPU seconds used.
