
This summary file was generated by TurbSim (v2.00.07a-bjj, 14-Jun-2016) on 03-Nov-2023 at 03:21:07.


Runtime Options:

      2501  Random seed #1
    RANLUX  Type of random number generator
         F  Output binary HH turbulence parameters?
         F  Output formatted turbulence parameters?
         F  Output AeroDyn HH files?
         F  Output AeroDyn FF files?
         T  Output BLADED FF files?
         F  Output tower data?
         F  Output formatted FF files?
         F  Output coherent turbulence time step file?
         T  Clockwise rotation when looking downwind?
 0 -  NONE  IEC turbulence models scaled to exact specified standard deviation


Turbine/Model Specifications:

        36  Vertical grid-point matrix dimension
        36  Horizontal grid-point matrix dimension
     0.100  Time step [seconds]
   660.000  Analysis time [seconds]
   660.000  Usable output time [seconds]
   151.000  Hub height [m]
   300.000  Grid height [m]
   300.000  Grid width [m]
     0.000  Vertical flow angle [degrees]
     0.000  Horizontal flow angle [degrees]


Meteorological Boundary Conditions:

    IECVKM  IEC von Karman spectral model
         1  IEC standard: IEC 61400-1 Ed. 3: 2005
         A  IEC turbulence characteristic
       NTM  IEC Normal Turbulence Model
       N/A  IEC Extreme Turbulence Model (ETM) "c" parameter [m/s]
       PL   Wind profile type
   153.000  Reference height [m]
    13.000  Reference wind speed [m/s]
       N/A  Jet height [m]
     0.200  Power law exponent
     0.030  Surface roughness length [m]


Non-IEC Meteorological Boundary Conditions:

       N/A  Site latitude [degrees]
       N/A  Gradient Richardson number
       N/A  Friction or shear velocity [m/s]
       N/A  Mixing layer depth [m]
       N/A  Mean hub u'w' Reynolds stress
       N/A  Mean hub u'v' Reynolds stress
       N/A  Mean hub v'w' Reynolds stress


Spatial Coherence Models:

       IEC  u-component coherence model
      NONE  v-component coherence model
      NONE  w-component coherence model
(   12.000, 0.353E-03)  u-component coherence parameters
                   N/A  v-component coherence parameters
                   N/A  w-component coherence parameters
       N/A  Coherence exponent


You have requested that the following file(s) be generated:

   G:\2023\OpenWECDV1.0.0_x64\BaseLIne\wind\WindL_V_13_seed_2501.wnd (AeroDyn/BLADED full-field wnd file)


Turbulence Simulation Scaling Parameter Summary:

   Turbulence model used                            =  IEC von Karman
   Turbulence characteristic                        =  A
   IEC turbulence type                              =  Normal Turbulence Model
   IEC standard                                     =  IEC 61400-1 Ed. 3: 2005
   Mean wind speed at hub height                    =   12.966 m/s
   Expected value of turbulence intensity at 15 m/s =   16.000%
   Characteristic value of standard deviation       =    2.452 m/s
   Turbulence scale                                 =   42.000 m
   Isotropic integral scale                         =  147.000 m
   Characteristic value of hub turbulence intensity =   18.910%
   Gradient Richardson number                       =    0.000

   Wind profile type                                =  Power law
   Power law exponent                               =    0.200
   Mean shear across rotor disk                     =    0.034 (m/s)/m
   Assumed rotor diameter                           =  300.000 m
   Surface roughness length                         =    0.030 m

   Nyquist frequency of turbulent wind field        =    5.000 Hz

   Number of time steps in the FFT                  =     6600
   Number of time steps output                      =     6600
   Number of points simulated                       =     1297


Mean Flow Angles:

   Vertical   =   0.0 degrees
   Horizontal =   0.0 degrees

Mean Wind Speed Profile:

   Height    Wind Speed   Horizontal Angle  Vertical Angle  U-comp (X)   V-comp (Y)   W-comp (Z)
     (m)        (m/s)         (degrees)       (degrees)       (m/s)        (m/s)        (m/s)   
   ------    ----------   ----------------  --------------  ----------   ----------   ----------
    301.0       14.88            0.00            0.00         14.88         0.00         0.00
    292.4       14.80            0.00            0.00         14.80         0.00         0.00
    283.9       14.71            0.00            0.00         14.71         0.00         0.00
    275.3       14.62            0.00            0.00         14.62         0.00         0.00
    266.7       14.53            0.00            0.00         14.53         0.00         0.00
    258.1       14.43            0.00            0.00         14.43         0.00         0.00
    249.6       14.34            0.00            0.00         14.34         0.00         0.00
    241.0       14.24            0.00            0.00         14.24         0.00         0.00
    232.4       14.13            0.00            0.00         14.13         0.00         0.00
    223.9       14.03            0.00            0.00         14.03         0.00         0.00
    215.3       13.92            0.00            0.00         13.92         0.00         0.00
    206.7       13.81            0.00            0.00         13.81         0.00         0.00
    198.1       13.69            0.00            0.00         13.69         0.00         0.00
    189.6       13.57            0.00            0.00         13.57         0.00         0.00
    181.0       13.44            0.00            0.00         13.44         0.00         0.00
    172.4       13.31            0.00            0.00         13.31         0.00         0.00
    163.9       13.18            0.00            0.00         13.18         0.00         0.00
    155.3       13.04            0.00            0.00         13.04         0.00         0.00
    151.0       12.97            0.00            0.00         12.97         0.00         0.00
    146.7       12.89            0.00            0.00         12.89         0.00         0.00
    138.1       12.74            0.00            0.00         12.74         0.00         0.00
    129.6       12.57            0.00            0.00         12.57         0.00         0.00
    121.0       12.40            0.00            0.00         12.40         0.00         0.00
    112.4       12.22            0.00            0.00         12.22         0.00         0.00
    103.9       12.03            0.00            0.00         12.03         0.00         0.00
     95.3       11.83            0.00            0.00         11.83         0.00         0.00
     86.7       11.60            0.00            0.00         11.60         0.00         0.00
     78.1       11.37            0.00            0.00         11.37         0.00         0.00
     69.6       11.10            0.00            0.00         11.10         0.00         0.00
     61.0       10.82            0.00            0.00         10.82         0.00         0.00
     52.4       10.49            0.00            0.00         10.49         0.00         0.00
     43.9       10.13            0.00            0.00         10.13         0.00         0.00
     35.3        9.69            0.00            0.00          9.69         0.00         0.00
     26.7        9.17            0.00            0.00          9.17         0.00         0.00
     18.1        8.49            0.00            0.00          8.49         0.00         0.00
      9.6        7.47            0.00            0.00          7.47         0.00         0.00
      1.0        4.75            0.00            0.00          4.75         0.00         0.00


Harvested Random Seeds after Generation of the Random Numbers:

    119307688 K 1
            0 K 2


Hub-Height Simulated Turbulence Statistical Summary:

   Type of Wind        Min (m/s)   Mean (m/s)    Max (m/s)  Sigma (m/s)       TI (%)
   ----------------    ---------   ----------    ---------  -----------       ------
   Longitudinal (u)         5.74        12.97        21.34        2.621       20.217
   Lateral (v)             -8.49        -0.00         8.29        2.408       18.570
   Vertical (w)            -8.21         0.00         9.25        2.408       18.570
   U component              5.74        12.97        21.34        2.621       20.217
   V component             -8.49        -0.00         8.29        2.408       18.570
   W component             -8.21         0.00         9.25        2.408       18.570
   Horizontal (U&V)         5.98        13.19        21.49        2.592       19.647
   Total                    6.06        13.41        21.50        2.576       19.204

                       Min Reynolds     Mean Reynolds    Max Reynolds    Correlation
   Product             Stress (m/s)^2   Stress (m/s)^2   Stress (m/s)^2  Coefficient
   ----------------    --------------   --------------   --------------  -----------
   u'w'                    -27.180             0.362            39.410         0.057
   u'v'                    -45.566             0.367            36.808         0.058
   v'w'                    -33.369            -0.497            27.651        -0.086


   Friction Velocity (Ustar)  =      0.602 m/s
   Maximum Instantaneous TKE  =     55.487 (m/s)^2
   Maximum Instantaneous CTKE =     29.055 (m/s)^2


Grid Point Variance Summary:

   Y-coord -150.00 -141.43 -132.86 -124.29 -115.71 -107.14  -98.57  -90.00  -81.43  -72.86  -64.29  -55.71  -47.14  -38.57  -30.00  -21.43  -12.86   -4.29    4.29   12.86   21.43   30.00   38.57   47.14   55.71   64.29   72.86   81.43   90.00   98.57  107.14  115.71  124.29  132.86  141.43  150.00

   Height   Standard deviation at grid points for the u component:
   301.00    2.378   2.289   2.256   2.377   2.422   2.370   2.251   2.324   2.323   2.207   2.353   2.267   2.388   2.474   2.535   2.490   2.353   2.499   2.395   2.444   2.326   2.396   2.456   2.590   2.753   2.735   2.632   2.643   2.548   2.598   2.620   2.560   2.529   2.523   2.564   2.437
   292.43    2.184   2.137   2.260   2.385   2.351   2.306   2.379   2.414   2.471   2.502   2.382   2.382   2.397   2.466   2.523   2.375   2.324   2.367   2.473   2.437   2.361   2.267   2.349   2.537   2.574   2.496   2.534   2.532   2.475   2.346   2.512   2.521   2.491   2.276   2.298   2.337
   283.86    2.074   2.056   2.209   2.337   2.283   2.241   2.354   2.380   2.501   2.452   2.406   2.345   2.369   2.380   2.387   2.305   2.288   2.469   2.403   2.512   2.458   2.341   2.311   2.502   2.480   2.388   2.370   2.368   2.421   2.413   2.472   2.589   2.348   2.360   2.344   2.316
   275.29    2.118   1.968   2.090   2.182   2.313   2.222   2.361   2.382   2.502   2.305   2.481   2.513   2.396   2.472   2.512   2.415   2.383   2.446   2.526   2.513   2.457   2.469   2.338   2.458   2.351   2.311   2.417   2.506   2.449   2.568   2.674   2.534   2.363   2.407   2.364   2.185
   266.71    1.945   2.063   2.161   2.179   2.140   2.251   2.352   2.483   2.551   2.378   2.393   2.464   2.546   2.652   2.471   2.439   2.387   2.470   2.519   2.586   2.455   2.414   2.446   2.376   2.415   2.385   2.307   2.494   2.485   2.511   2.380   2.413   2.407   2.564   2.437   2.175
   258.14    2.103   2.088   2.078   2.191   2.188   2.119   2.181   2.491   2.498   2.288   2.464   2.486   2.567   2.741   2.623   2.592   2.534   2.444   2.312   2.440   2.458   2.314   2.345   2.459   2.418   2.349   2.307   2.179   2.524   2.552   2.558   2.584   2.379   2.501   2.389   2.332
   249.57    2.142   2.191   2.107   2.190   2.264   2.264   2.420   2.432   2.474   2.313   2.329   2.429   2.454   2.668   2.516   2.538   2.620   2.458   2.512   2.315   2.209   2.108   2.241   2.399   2.319   2.333   2.338   2.344   2.561   2.579   2.620   2.658   2.721   2.637   2.415   2.433
   241.00    2.145   2.271   2.223   2.245   2.183   2.222   2.439   2.590   2.590   2.318   2.346   2.526   2.562   2.444   2.422   2.612   2.631   2.428   2.500   2.466   2.225   2.263   2.305   2.258   2.315   2.459   2.366   2.343   2.386   2.343   2.452   2.607   2.574   2.609   2.486   2.301
   232.43    2.101   2.216   2.229   2.256   2.287   2.252   2.400   2.627   2.508   2.421   2.432   2.585   2.750   2.731   2.600   2.510   2.493   2.627   2.652   2.530   2.343   2.267   2.270   2.068   2.259   2.372   2.384   2.493   2.479   2.327   2.327   2.411   2.472   2.446   2.364   2.301
   223.86    2.106   2.210   2.205   2.203   2.229   2.204   2.417   2.597   2.494   2.369   2.485   2.514   2.641   2.675   2.648   2.557   2.394   2.476   2.642   2.422   2.392   2.275   2.325   2.358   2.264   2.304   2.348   2.338   2.354   2.358   2.359   2.333   2.323   2.443   2.405   2.253
   215.29    2.204   2.226   2.284   2.302   2.254   2.516   2.443   2.522   2.574   2.470   2.431   2.474   2.557   2.537   2.597   2.719   2.712   2.545   2.416   2.438   2.402   2.389   2.313   2.351   2.141   2.399   2.407   2.260   2.376   2.149   2.300   2.215   2.308   2.264   2.233   2.195
   206.71    2.091   2.213   2.234   2.223   2.319   2.277   2.368   2.219   2.355   2.380   2.352   2.401   2.638   2.508   2.534   2.626   2.651   2.697   2.422   2.434   2.359   2.276   2.319   2.419   2.326   2.295   2.348   2.214   2.175   2.178   2.131   2.229   2.239   2.251   2.309   2.160
   198.14    2.060   2.139   2.036   2.022   2.049   2.202   2.104   2.103   2.283   2.263   2.310   2.518   2.548   2.470   2.474   2.427   2.574   2.634   2.575   2.406   2.465   2.297   2.328   2.241   2.399   2.239   2.219   2.236   2.326   2.108   2.194   2.219   2.246   2.311   2.295   2.332
   189.57    2.014   1.955   2.037   1.862   1.984   2.128   2.191   1.999   2.131   2.301   2.526   2.544   2.612   2.625   2.408   2.433   2.444   2.565   2.613   2.452   2.330   2.416   2.522   2.344   2.429   2.272   2.282   2.394   2.344   2.238   2.207   2.133   2.328   2.242   2.244   2.309
   181.00    1.975   1.827   1.927   1.928   1.980   2.141   2.313   2.032   2.252   2.332   2.430   2.478   2.579   2.594   2.646   2.512   2.437   2.547   2.481   2.499   2.491   2.611   2.516   2.400   2.363   2.322   2.217   2.390   2.404   2.399   2.251   2.273   2.329   2.303   2.180   2.324
   172.43    1.897   1.814   1.796   1.755   1.910   2.093   2.300   2.148   2.234   2.487   2.478   2.517   2.529   2.556   2.554   2.663   2.468   2.410   2.409   2.235   2.421   2.482   2.542   2.504   2.415   2.327   2.432   2.288   2.346   2.395   2.231   2.258   2.439   2.303   2.289   2.168
   163.86    1.942   1.868   1.926   1.800   1.810   2.029   2.188   2.137   2.373   2.445   2.429   2.475   2.505   2.446   2.543   2.696   2.601   2.517   2.333   2.399   2.428   2.486   2.554   2.355   2.412   2.267   2.337   2.206   2.266   2.145   2.144   2.151   2.305   2.291   2.152   2.182
   155.29    1.892   2.040   1.897   1.835   1.928   1.837   2.115   2.152   2.293   2.386   2.321   2.266   2.295   2.362   2.660   2.729   2.595   2.679   2.599   2.598   2.552   2.673   2.647   2.563   2.632   2.330   2.157   2.161   2.151   2.332   2.177   2.188   2.264   2.111   2.124   2.123
   146.71    2.176   2.067   1.957   1.887   1.949   2.063   2.251   2.452   2.411   2.396   2.512   2.450   2.559   2.524   2.671   2.881   2.763   2.733   2.794   2.616   2.755   2.741   2.538   2.570   2.698   2.581   2.330   2.383   2.491   2.428   2.293   2.203   2.192   2.174   2.201   2.074
   138.14    2.093   2.179   1.977   1.875   2.045   2.124   2.396   2.467   2.419   2.387   2.516   2.640   2.837   2.729   2.811   2.821   2.983   2.760   2.749   2.770   2.809   2.666   2.698   2.558   2.627   2.726   2.683   2.501   2.512   2.310   2.415   2.282   2.232   2.343   2.247   2.227
   129.57    2.223   2.193   1.966   1.939   1.958   2.122   2.293   2.429   2.377   2.431   2.609   2.811   2.991   2.760   2.839   2.808   2.746   2.713   2.628   2.825   2.807   2.647   2.766   2.713   2.632   2.937   2.769   2.705   2.604   2.339   2.488   2.225   2.159   2.288   2.249   2.189
   121.00    2.150   2.234   2.097   2.094   2.006   2.082   2.053   2.248   2.356   2.550   2.642   2.865   2.817   2.896   2.798   2.712   2.726   2.627   2.643   2.708   2.714   2.675   2.808   2.704   2.734   2.792   2.749   2.651   2.582   2.479   2.422   2.446   2.317   2.418   2.256   2.284
   112.43    2.069   2.264   2.287   2.167   2.201   2.097   2.067   2.186   2.398   2.654   2.677   2.814   2.838   2.985   2.972   2.868   2.726   2.580   2.536   2.680   2.613   2.693   2.747   2.702   2.692   2.677   2.727   2.568   2.580   2.564   2.563   2.426   2.312   2.277   2.322   2.276
   103.86    1.913   1.991   2.000   2.076   2.109   2.262   2.112   2.265   2.374   2.459   2.741   2.745   2.847   3.041   2.975   3.065   2.558   2.545   2.647   2.747   2.725   2.676   2.636   2.668   2.619   2.619   2.593   2.507   2.548   2.561   2.484   2.518   2.348   2.414   2.319   2.338
    95.29    1.922   1.958   1.991   1.995   1.984   2.154   2.174   2.315   2.343   2.348   2.438   2.661   2.783   2.830   2.948   2.880   2.756   2.561   2.842   2.705   2.723   2.739   2.834   2.675   2.543   2.459   2.607   2.606   2.644   2.644   2.567   2.708   2.750   2.467   2.416   2.473
    86.71    2.168   2.151   2.042   2.130   2.009   2.305   2.303   2.223   2.291   2.267   2.338   2.572   2.532   2.774   2.728   2.837   2.930   2.847   2.831   2.809   2.768   2.786   2.706   2.624   2.620   2.518   2.519   2.588   2.670   2.713   2.840   2.729   2.835   2.677   2.582   2.341
    78.14    2.162   2.039   2.034   2.094   2.273   2.320   2.354   2.432   2.317   2.321   2.336   2.537   2.737   2.784   2.697   2.753   2.772   2.702   2.878   2.667   2.689   2.743   2.673   2.445   2.663   2.544   2.488   2.459   2.669   2.757   2.841   2.786   2.696   2.656   2.764   2.678
    69.57    2.131   2.074   2.172   2.271   2.407   2.292   2.315   2.278   2.168   2.410   2.409   2.439   2.529   2.649   2.862   2.714   2.746   2.715   2.647   2.524   2.688   2.767   2.549   2.582   2.547   2.560   2.550   2.480   2.595   2.856   2.871   2.745   2.704   2.716   2.843   2.824
    61.00    2.102   2.209   2.145   2.365   2.515   2.482   2.469   2.244   2.389   2.334   2.318   2.321   2.401   2.493   2.650   2.801   2.797   2.615   2.358   2.409   2.345   2.367   2.229   2.359   2.430   2.360   2.465   2.567   2.534   2.711   2.752   2.701   2.614   2.791   2.771   2.795
    52.43    2.095   2.025   2.260   2.315   2.371   2.501   2.460   2.500   2.440   2.532   2.344   2.258   2.349   2.517   2.552   2.768   2.770   2.493   2.459   2.365   2.323   2.425   2.254   2.210   2.458   2.288   2.427   2.535   2.471   2.574   2.726   2.586   2.606   2.633   2.635   2.566
    43.86    2.111   2.201   2.291   2.356   2.422   2.566   2.417   2.531   2.586   2.450   2.292   2.332   2.513   2.466   2.548   2.483   2.479   2.485   2.288   2.342   2.331   2.439   2.583   2.315   2.284   2.500   2.539   2.601   2.707   2.536   2.486   2.467   2.439   2.504   2.572   2.634
    35.29    2.224   2.345   2.407   2.309   2.435   2.517   2.558   2.647   2.669   2.420   2.409   2.374   2.388   2.588   2.439   2.439   2.547   2.320   2.353   2.328   2.319   2.416   2.548   2.424   2.345   2.486   2.576   2.519   2.594   2.543   2.489   2.505   2.442   2.400   2.434   2.639
    26.71    2.184   2.294   2.501   2.540   2.515   2.678   2.766   2.602   2.606   2.757   2.491   2.323   2.374   2.472   2.391   2.465   2.436   2.414   2.357   2.379   2.417   2.388   2.396   2.497   2.409   2.561   2.262   2.476   2.501   2.525   2.479   2.412   2.499   2.457   2.584   2.737
    18.14    2.330   2.419   2.546   2.534   2.510   2.519   2.562   2.537   2.682   2.574   2.587   2.347   2.315   2.394   2.564   2.482   2.629   2.574   2.466   2.373   2.324   2.364   2.329   2.416   2.479   2.423   2.460   2.389   2.556   2.696   2.649   2.608   2.477   2.508   2.655   2.852
     9.57    2.426   2.523   2.662   2.651   2.631   2.617   2.612   2.541   2.582   2.458   2.258   2.349   2.377   2.518   2.720   2.715   2.659   2.563   2.381   2.219   2.182   2.290   2.418   2.447   2.438   2.501   2.519   2.529   2.619   2.582   2.547   2.474   2.387   2.575   2.824   2.790
     1.00    2.393   2.576   2.611   2.730   2.785   2.697   2.549   2.597   2.480   2.560   2.424   2.355   2.415   2.479   2.667   2.748   2.554   2.641   2.412   2.134   2.134   2.288   2.396   2.444   2.469   2.510   2.491   2.504   2.498   2.503   2.517   2.514   2.468   2.758   2.700   2.781

   Height   Standard deviation at grid points for the v component:
   301.00    2.408   2.408   2.408   2.408   2.408   2.408   2.408   2.408   2.408   2.408   2.408   2.408   2.408   2.408   2.408   2.408   2.408   2.408   2.408   2.408   2.408   2.408   2.408   2.408   2.408   2.408   2.408   2.408   2.408   2.408   2.408   2.408   2.408   2.408   2.408   2.408
   292.43    2.408   2.408   2.408   2.408   2.408   2.408   2.408   2.408   2.408   2.408   2.408   2.408   2.408   2.408   2.408   2.408   2.408   2.408   2.408   2.408   2.408   2.408   2.408   2.408   2.408   2.408   2.408   2.408   2.408   2.408   2.408   2.408   2.408   2.408   2.408   2.408
   283.86    2.408   2.408   2.408   2.408   2.408   2.408   2.408   2.408   2.408   2.408   2.408   2.408   2.408   2.408   2.408   2.408   2.408   2.408   2.408   2.408   2.408   2.408   2.408   2.408   2.408   2.408   2.408   2.408   2.408   2.408   2.408   2.408   2.408   2.408   2.408   2.408
   275.29    2.408   2.408   2.408   2.408   2.408   2.408   2.408   2.408   2.408   2.408   2.408   2.408   2.408   2.408   2.408   2.408   2.408   2.408   2.408   2.408   2.408   2.408   2.408   2.408   2.408   2.408   2.408   2.408   2.408   2.408   2.408   2.408   2.408   2.408   2.408   2.408
   266.71    2.408   2.408   2.408   2.408   2.408   2.408   2.408   2.408   2.408   2.408   2.408   2.408   2.408   2.408   2.408   2.408   2.408   2.408   2.408   2.408   2.408   2.408   2.408   2.408   2.408   2.408   2.408   2.408   2.408   2.408   2.408   2.408   2.408   2.408   2.408   2.408
   258.14    2.408   2.408   2.408   2.408   2.408   2.408   2.408   2.408   2.408   2.408   2.408   2.408   2.408   2.408   2.408   2.408   2.408   2.408   2.408   2.408   2.408   2.408   2.408   2.408   2.408   2.408   2.408   2.408   2.408   2.408   2.408   2.408   2.408   2.408   2.408   2.408
   249.57    2.408   2.408   2.408   2.408   2.408   2.408   2.408   2.408   2.408   2.408   2.408   2.408   2.408   2.408   2.408   2.408   2.408   2.408   2.408   2.408   2.408   2.408   2.408   2.408   2.408   2.408   2.408   2.408   2.408   2.408   2.408   2.408   2.408   2.408   2.408   2.408
   241.00    2.408   2.408   2.408   2.408   2.408   2.408   2.408   2.408   2.408   2.408   2.408   2.408   2.408   2.408   2.408   2.408   2.408   2.408   2.408   2.408   2.408   2.408   2.408   2.408   2.408   2.408   2.408   2.408   2.408   2.408   2.408   2.408   2.408   2.408   2.408   2.408
   232.43    2.408   2.408   2.408   2.408   2.408   2.408   2.408   2.408   2.408   2.408   2.408   2.408   2.408   2.408   2.408   2.408   2.408   2.408   2.408   2.408   2.408   2.408   2.408   2.408   2.408   2.408   2.408   2.408   2.408   2.408   2.408   2.408   2.408   2.408   2.408   2.408
   223.86    2.408   2.408   2.408   2.408   2.408   2.408   2.408   2.408   2.408   2.408   2.408   2.408   2.408   2.408   2.408   2.408   2.408   2.408   2.408   2.408   2.408   2.408   2.408   2.408   2.408   2.408   2.408   2.408   2.408   2.408   2.408   2.408   2.408   2.408   2.408   2.408
   215.29    2.408   2.408   2.408   2.408   2.408   2.408   2.408   2.408   2.408   2.408   2.408   2.408   2.408   2.408   2.408   2.408   2.408   2.408   2.408   2.408   2.408   2.408   2.408   2.408   2.408   2.408   2.408   2.408   2.408   2.408   2.408   2.408   2.408   2.408   2.408   2.408
   206.71    2.408   2.408   2.408   2.408   2.408   2.408   2.408   2.408   2.408   2.408   2.408   2.408   2.408   2.408   2.408   2.408   2.408   2.408   2.408   2.408   2.408   2.408   2.408   2.408   2.408   2.408   2.408   2.408   2.408   2.408   2.408   2.408   2.408   2.408   2.408   2.408
   198.14    2.408   2.408   2.408   2.408   2.408   2.408   2.408   2.408   2.408   2.408   2.408   2.408   2.408   2.408   2.408   2.408   2.408   2.408   2.408   2.408   2.408   2.408   2.408   2.408   2.408   2.408   2.408   2.408   2.408   2.408   2.408   2.408   2.408   2.408   2.408   2.408
   189.57    2.408   2.408   2.408   2.408   2.408   2.408   2.408   2.408   2.408   2.408   2.408   2.408   2.408   2.408   2.408   2.408   2.408   2.408   2.408   2.408   2.408   2.408   2.408   2.408   2.408   2.408   2.408   2.408   2.408   2.408   2.408   2.408   2.408   2.408   2.408   2.408
   181.00    2.408   2.408   2.408   2.408   2.408   2.408   2.408   2.408   2.408   2.408   2.408   2.408   2.408   2.408   2.408   2.408   2.408   2.408   2.408   2.408   2.408   2.408   2.408   2.408   2.408   2.408   2.408   2.408   2.408   2.408   2.408   2.408   2.408   2.408   2.408   2.408
   172.43    2.408   2.408   2.408   2.408   2.408   2.408   2.408   2.408   2.408   2.408   2.408   2.408   2.408   2.408   2.408   2.408   2.408   2.408   2.408   2.408   2.408   2.408   2.408   2.408   2.408   2.408   2.408   2.408   2.408   2.408   2.408   2.408   2.408   2.408   2.408   2.408
   163.86    2.408   2.408   2.408   2.408   2.408   2.408   2.408   2.408   2.408   2.408   2.408   2.408   2.408   2.408   2.408   2.408   2.408   2.408   2.408   2.408   2.408   2.408   2.408   2.408   2.408   2.408   2.408   2.408   2.408   2.408   2.408   2.408   2.408   2.408   2.408   2.408
   155.29    2.408   2.408   2.408   2.408   2.408   2.408   2.408   2.408   2.408   2.408   2.408   2.408   2.408   2.408   2.408   2.408   2.408   2.408   2.408   2.408   2.408   2.408   2.408   2.408   2.408   2.408   2.408   2.408   2.408   2.408   2.408   2.408   2.408   2.408   2.408   2.408
   146.71    2.408   2.408   2.408   2.408   2.408   2.408   2.408   2.408   2.408   2.408   2.408   2.408   2.408   2.408   2.408   2.408   2.408   2.408   2.408   2.408   2.408   2.408   2.408   2.408   2.408   2.408   2.408   2.408   2.408   2.408   2.408   2.408   2.408   2.408   2.408   2.408
   138.14    2.408   2.408   2.408   2.408   2.408   2.408   2.408   2.408   2.408   2.408   2.408   2.408   2.408   2.408   2.408   2.408   2.408   2.408   2.408   2.408   2.408   2.408   2.408   2.408   2.408   2.408   2.408   2.408   2.408   2.408   2.408   2.408   2.408   2.408   2.408   2.408
   129.57    2.408   2.408   2.408   2.408   2.408   2.408   2.408   2.408   2.408   2.408   2.408   2.408   2.408   2.408   2.408   2.408   2.408   2.408   2.408   2.408   2.408   2.408   2.408   2.408   2.408   2.408   2.408   2.408   2.408   2.408   2.408   2.408   2.408   2.408   2.408   2.408
   121.00    2.408   2.408   2.408   2.408   2.408   2.408   2.408   2.408   2.408   2.408   2.408   2.408   2.408   2.408   2.408   2.408   2.408   2.408   2.408   2.408   2.408   2.408   2.408   2.408   2.408   2.408   2.408   2.408   2.408   2.408   2.408   2.408   2.408   2.408   2.408   2.408
   112.43    2.408   2.408   2.408   2.408   2.408   2.408   2.408   2.408   2.408   2.408   2.408   2.408   2.408   2.408   2.408   2.408   2.408   2.408   2.408   2.408   2.408   2.408   2.408   2.408   2.408   2.408   2.408   2.408   2.408   2.408   2.408   2.408   2.408   2.408   2.408   2.408
   103.86    2.408   2.408   2.408   2.408   2.408   2.408   2.408   2.408   2.408   2.408   2.408   2.408   2.408   2.408   2.408   2.408   2.408   2.408   2.408   2.408   2.408   2.408   2.408   2.408   2.408   2.408   2.408   2.408   2.408   2.408   2.408   2.408   2.408   2.408   2.408   2.408
    95.29    2.408   2.408   2.408   2.408   2.408   2.408   2.408   2.408   2.408   2.408   2.408   2.408   2.408   2.408   2.408   2.408   2.408   2.408   2.408   2.408   2.408   2.408   2.408   2.408   2.408   2.408   2.408   2.408   2.408   2.408   2.408   2.408   2.408   2.408   2.408   2.408
    86.71    2.408   2.408   2.408   2.408   2.408   2.408   2.408   2.408   2.408   2.408   2.408   2.408   2.408   2.408   2.408   2.408   2.408   2.408   2.408   2.408   2.408   2.408   2.408   2.408   2.408   2.408   2.408   2.408   2.408   2.408   2.408   2.408   2.408   2.408   2.408   2.408
    78.14    2.408   2.408   2.408   2.408   2.408   2.408   2.408   2.408   2.408   2.408   2.408   2.408   2.408   2.408   2.408   2.408   2.408   2.408   2.408   2.408   2.408   2.408   2.408   2.408   2.408   2.408   2.408   2.408   2.408   2.408   2.408   2.408   2.408   2.408   2.408   2.408
    69.57    2.408   2.408   2.408   2.408   2.408   2.408   2.408   2.408   2.408   2.408   2.408   2.408   2.408   2.408   2.408   2.408   2.408   2.408   2.408   2.408   2.408   2.408   2.408   2.408   2.408   2.408   2.408   2.408   2.408   2.408   2.408   2.408   2.408   2.408   2.408   2.408
    61.00    2.408   2.408   2.408   2.408   2.408   2.408   2.408   2.408   2.408   2.408   2.408   2.408   2.408   2.408   2.408   2.408   2.408   2.408   2.408   2.408   2.408   2.408   2.408   2.408   2.408   2.408   2.408   2.408   2.408   2.408   2.408   2.408   2.408   2.408   2.408   2.408
    52.43    2.408   2.408   2.408   2.408   2.408   2.408   2.408   2.408   2.408   2.408   2.408   2.408   2.408   2.408   2.408   2.408   2.408   2.408   2.408   2.408   2.408   2.408   2.408   2.408   2.408   2.408   2.408   2.408   2.408   2.408   2.408   2.408   2.408   2.408   2.408   2.408
    43.86    2.408   2.408   2.408   2.408   2.408   2.408   2.408   2.408   2.408   2.408   2.408   2.408   2.408   2.408   2.408   2.408   2.408   2.408   2.408   2.408   2.408   2.408   2.408   2.408   2.408   2.408   2.408   2.408   2.408   2.408   2.408   2.408   2.408   2.408   2.408   2.408
    35.29    2.408   2.408   2.408   2.408   2.408   2.408   2.408   2.408   2.408   2.408   2.408   2.408   2.408   2.408   2.408   2.408   2.408   2.408   2.408   2.408   2.408   2.408   2.408   2.408   2.408   2.408   2.408   2.408   2.408   2.408   2.408   2.408   2.408   2.408   2.408   2.408
    26.71    2.408   2.408   2.408   2.408   2.408   2.408   2.408   2.408   2.408   2.408   2.408   2.408   2.408   2.408   2.408   2.408   2.408   2.408   2.408   2.408   2.408   2.408   2.408   2.408   2.408   2.408   2.408   2.408   2.408   2.408   2.408   2.408   2.408   2.408   2.408   2.408
    18.14    2.408   2.408   2.408   2.408   2.408   2.408   2.408   2.408   2.408   2.408   2.408   2.408   2.408   2.408   2.408   2.408   2.408   2.408   2.408   2.408   2.408   2.408   2.408   2.408   2.408   2.408   2.408   2.408   2.408   2.408   2.408   2.408   2.408   2.408   2.408   2.408
     9.57    2.408   2.408   2.408   2.408   2.408   2.408   2.408   2.408   2.408   2.408   2.408   2.408   2.408   2.408   2.408   2.408   2.408   2.408   2.408   2.408   2.408   2.408   2.408   2.408   2.408   2.408   2.408   2.408   2.408   2.408   2.408   2.408   2.408   2.408   2.408   2.408
     1.00    2.408   2.408   2.408   2.408   2.408   2.408   2.408   2.408   2.408   2.408   2.408   2.408   2.408   2.408   2.408   2.408   2.408   2.408   2.408   2.408   2.408   2.408   2.408   2.408   2.408   2.408   2.408   2.408   2.408   2.408   2.408   2.408   2.408   2.408   2.408   2.408

   Height   Standard deviation at grid points for the w component:
   301.00    2.408   2.408   2.408   2.408   2.408   2.408   2.408   2.408   2.408   2.408   2.408   2.408   2.408   2.408   2.408   2.408   2.408   2.408   2.408   2.408   2.408   2.408   2.408   2.408   2.408   2.408   2.408   2.408   2.408   2.408   2.408   2.408   2.408   2.408   2.408   2.408
   292.43    2.408   2.408   2.408   2.408   2.408   2.408   2.408   2.408   2.408   2.408   2.408   2.408   2.408   2.408   2.408   2.408   2.408   2.408   2.408   2.408   2.408   2.408   2.408   2.408   2.408   2.408   2.408   2.408   2.408   2.408   2.408   2.408   2.408   2.408   2.408   2.408
   283.86    2.408   2.408   2.408   2.408   2.408   2.408   2.408   2.408   2.408   2.408   2.408   2.408   2.408   2.408   2.408   2.408   2.408   2.408   2.408   2.408   2.408   2.408   2.408   2.408   2.408   2.408   2.408   2.408   2.408   2.408   2.408   2.408   2.408   2.408   2.408   2.408
   275.29    2.408   2.408   2.408   2.408   2.408   2.408   2.408   2.408   2.408   2.408   2.408   2.408   2.408   2.408   2.408   2.408   2.408   2.408   2.408   2.408   2.408   2.408   2.408   2.408   2.408   2.408   2.408   2.408   2.408   2.408   2.408   2.408   2.408   2.408   2.408   2.408
   266.71    2.408   2.408   2.408   2.408   2.408   2.408   2.408   2.408   2.408   2.408   2.408   2.408   2.408   2.408   2.408   2.408   2.408   2.408   2.408   2.408   2.408   2.408   2.408   2.408   2.408   2.408   2.408   2.408   2.408   2.408   2.408   2.408   2.408   2.408   2.408   2.408
   258.14    2.408   2.408   2.408   2.408   2.408   2.408   2.408   2.408   2.408   2.408   2.408   2.408   2.408   2.408   2.408   2.408   2.408   2.408   2.408   2.408   2.408   2.408   2.408   2.408   2.408   2.408   2.408   2.408   2.408   2.408   2.408   2.408   2.408   2.408   2.408   2.408
   249.57    2.408   2.408   2.408   2.408   2.408   2.408   2.408   2.408   2.408   2.408   2.408   2.408   2.408   2.408   2.408   2.408   2.408   2.408   2.408   2.408   2.408   2.408   2.408   2.408   2.408   2.408   2.408   2.408   2.408   2.408   2.408   2.408   2.408   2.408   2.408   2.408
   241.00    2.408   2.408   2.408   2.408   2.408   2.408   2.408   2.408   2.408   2.408   2.408   2.408   2.408   2.408   2.408   2.408   2.408   2.408   2.408   2.408   2.408   2.408   2.408   2.408   2.408   2.408   2.408   2.408   2.408   2.408   2.408   2.408   2.408   2.408   2.408   2.408
   232.43    2.408   2.408   2.408   2.408   2.408   2.408   2.408   2.408   2.408   2.408   2.408   2.408   2.408   2.408   2.408   2.408   2.408   2.408   2.408   2.408   2.408   2.408   2.408   2.408   2.408   2.408   2.408   2.408   2.408   2.408   2.408   2.408   2.408   2.408   2.408   2.408
   223.86    2.408   2.408   2.408   2.408   2.408   2.408   2.408   2.408   2.408   2.408   2.408   2.408   2.408   2.408   2.408   2.408   2.408   2.408   2.408   2.408   2.408   2.408   2.408   2.408   2.408   2.408   2.408   2.408   2.408   2.408   2.408   2.408   2.408   2.408   2.408   2.408
   215.29    2.408   2.408   2.408   2.408   2.408   2.408   2.408   2.408   2.408   2.408   2.408   2.408   2.408   2.408   2.408   2.408   2.408   2.408   2.408   2.408   2.408   2.408   2.408   2.408   2.408   2.408   2.408   2.408   2.408   2.408   2.408   2.408   2.408   2.408   2.408   2.408
   206.71    2.408   2.408   2.408   2.408   2.408   2.408   2.408   2.408   2.408   2.408   2.408   2.408   2.408   2.408   2.408   2.408   2.408   2.408   2.408   2.408   2.408   2.408   2.408   2.408   2.408   2.408   2.408   2.408   2.408   2.408   2.408   2.408   2.408   2.408   2.408   2.408
   198.14    2.408   2.408   2.408   2.408   2.408   2.408   2.408   2.408   2.408   2.408   2.408   2.408   2.408   2.408   2.408   2.408   2.408   2.408   2.408   2.408   2.408   2.408   2.408   2.408   2.408   2.408   2.408   2.408   2.408   2.408   2.408   2.408   2.408   2.408   2.408   2.408
   189.57    2.408   2.408   2.408   2.408   2.408   2.408   2.408   2.408   2.408   2.408   2.408   2.408   2.408   2.408   2.408   2.408   2.408   2.408   2.408   2.408   2.408   2.408   2.408   2.408   2.408   2.408   2.408   2.408   2.408   2.408   2.408   2.408   2.408   2.408   2.408   2.408
   181.00    2.408   2.408   2.408   2.408   2.408   2.408   2.408   2.408   2.408   2.408   2.408   2.408   2.408   2.408   2.408   2.408   2.408   2.408   2.408   2.408   2.408   2.408   2.408   2.408   2.408   2.408   2.408   2.408   2.408   2.408   2.408   2.408   2.408   2.408   2.408   2.408
   172.43    2.408   2.408   2.408   2.408   2.408   2.408   2.408   2.408   2.408   2.408   2.408   2.408   2.408   2.408   2.408   2.408   2.408   2.408   2.408   2.408   2.408   2.408   2.408   2.408   2.408   2.408   2.408   2.408   2.408   2.408   2.408   2.408   2.408   2.408   2.408   2.408
   163.86    2.408   2.408   2.408   2.408   2.408   2.408   2.408   2.408   2.408   2.408   2.408   2.408   2.408   2.408   2.408   2.408   2.408   2.408   2.408   2.408   2.408   2.408   2.408   2.408   2.408   2.408   2.408   2.408   2.408   2.408   2.408   2.408   2.408   2.408   2.408   2.408
   155.29    2.408   2.408   2.408   2.408   2.408   2.408   2.408   2.408   2.408   2.408   2.408   2.408   2.408   2.408   2.408   2.408   2.408   2.408   2.408   2.408   2.408   2.408   2.408   2.408   2.408   2.408   2.408   2.408   2.408   2.408   2.408   2.408   2.408   2.408   2.408   2.408
   146.71    2.408   2.408   2.408   2.408   2.408   2.408   2.408   2.408   2.408   2.408   2.408   2.408   2.408   2.408   2.408   2.408   2.408   2.408   2.408   2.408   2.408   2.408   2.408   2.408   2.408   2.408   2.408   2.408   2.408   2.408   2.408   2.408   2.408   2.408   2.408   2.408
   138.14    2.408   2.408   2.408   2.408   2.408   2.408   2.408   2.408   2.408   2.408   2.408   2.408   2.408   2.408   2.408   2.408   2.408   2.408   2.408   2.408   2.408   2.408   2.408   2.408   2.408   2.408   2.408   2.408   2.408   2.408   2.408   2.408   2.408   2.408   2.408   2.408
   129.57    2.408   2.408   2.408   2.408   2.408   2.408   2.408   2.408   2.408   2.408   2.408   2.408   2.408   2.408   2.408   2.408   2.408   2.408   2.408   2.408   2.408   2.408   2.408   2.408   2.408   2.408   2.408   2.408   2.408   2.408   2.408   2.408   2.408   2.408   2.408   2.408
   121.00    2.408   2.408   2.408   2.408   2.408   2.408   2.408   2.408   2.408   2.408   2.408   2.408   2.408   2.408   2.408   2.408   2.408   2.408   2.408   2.408   2.408   2.408   2.408   2.408   2.408   2.408   2.408   2.408   2.408   2.408   2.408   2.408   2.408   2.408   2.408   2.408
   112.43    2.408   2.408   2.408   2.408   2.408   2.408   2.408   2.408   2.408   2.408   2.408   2.408   2.408   2.408   2.408   2.408   2.408   2.408   2.408   2.408   2.408   2.408   2.408   2.408   2.408   2.408   2.408   2.408   2.408   2.408   2.408   2.408   2.408   2.408   2.408   2.408
   103.86    2.408   2.408   2.408   2.408   2.408   2.408   2.408   2.408   2.408   2.408   2.408   2.408   2.408   2.408   2.408   2.408   2.408   2.408   2.408   2.408   2.408   2.408   2.408   2.408   2.408   2.408   2.408   2.408   2.408   2.408   2.408   2.408   2.408   2.408   2.408   2.408
    95.29    2.408   2.408   2.408   2.408   2.408   2.408   2.408   2.408   2.408   2.408   2.408   2.408   2.408   2.408   2.408   2.408   2.408   2.408   2.408   2.408   2.408   2.408   2.408   2.408   2.408   2.408   2.408   2.408   2.408   2.408   2.408   2.408   2.408   2.408   2.408   2.408
    86.71    2.408   2.408   2.408   2.408   2.408   2.408   2.408   2.408   2.408   2.408   2.408   2.408   2.408   2.408   2.408   2.408   2.408   2.408   2.408   2.408   2.408   2.408   2.408   2.408   2.408   2.408   2.408   2.408   2.408   2.408   2.408   2.408   2.408   2.408   2.408   2.408
    78.14    2.408   2.408   2.408   2.408   2.408   2.408   2.408   2.408   2.408   2.408   2.408   2.408   2.408   2.408   2.408   2.408   2.408   2.408   2.408   2.408   2.408   2.408   2.408   2.408   2.408   2.408   2.408   2.408   2.408   2.408   2.408   2.408   2.408   2.408   2.408   2.408
    69.57    2.408   2.408   2.408   2.408   2.408   2.408   2.408   2.408   2.408   2.408   2.408   2.408   2.408   2.408   2.408   2.408   2.408   2.408   2.408   2.408   2.408   2.408   2.408   2.408   2.408   2.408   2.408   2.408   2.408   2.408   2.408   2.408   2.408   2.408   2.408   2.408
    61.00    2.408   2.408   2.408   2.408   2.408   2.408   2.408   2.408   2.408   2.408   2.408   2.408   2.408   2.408   2.408   2.408   2.408   2.408   2.408   2.408   2.408   2.408   2.408   2.408   2.408   2.408   2.408   2.408   2.408   2.408   2.408   2.408   2.408   2.408   2.408   2.408
    52.43    2.408   2.408   2.408   2.408   2.408   2.408   2.408   2.408   2.408   2.408   2.408   2.408   2.408   2.408   2.408   2.408   2.408   2.408   2.408   2.408   2.408   2.408   2.408   2.408   2.408   2.408   2.408   2.408   2.408   2.408   2.408   2.408   2.408   2.408   2.408   2.408
    43.86    2.408   2.408   2.408   2.408   2.408   2.408   2.408   2.408   2.408   2.408   2.408   2.408   2.408   2.408   2.408   2.408   2.408   2.408   2.408   2.408   2.408   2.408   2.408   2.408   2.408   2.408   2.408   2.408   2.408   2.408   2.408   2.408   2.408   2.408   2.408   2.408
    35.29    2.408   2.408   2.408   2.408   2.408   2.408   2.408   2.408   2.408   2.408   2.408   2.408   2.408   2.408   2.408   2.408   2.408   2.408   2.408   2.408   2.408   2.408   2.408   2.408   2.408   2.408   2.408   2.408   2.408   2.408   2.408   2.408   2.408   2.408   2.408   2.408
    26.71    2.408   2.408   2.408   2.408   2.408   2.408   2.408   2.408   2.408   2.408   2.408   2.408   2.408   2.408   2.408   2.408   2.408   2.408   2.408   2.408   2.408   2.408   2.408   2.408   2.408   2.408   2.408   2.408   2.408   2.408   2.408   2.408   2.408   2.408   2.408   2.408
    18.14    2.408   2.408   2.408   2.408   2.408   2.408   2.408   2.408   2.408   2.408   2.408   2.408   2.408   2.408   2.408   2.408   2.408   2.408   2.408   2.408   2.408   2.408   2.408   2.408   2.408   2.408   2.408   2.408   2.408   2.408   2.408   2.408   2.408   2.408   2.408   2.408
     9.57    2.408   2.408   2.408   2.408   2.408   2.408   2.408   2.408   2.408   2.408   2.408   2.408   2.408   2.408   2.408   2.408   2.408   2.408   2.408   2.408   2.408   2.408   2.408   2.408   2.408   2.408   2.408   2.408   2.408   2.408   2.408   2.408   2.408   2.408   2.408   2.408
     1.00    2.408   2.408   2.408   2.408   2.408   2.408   2.408   2.408   2.408   2.408   2.408   2.408   2.408   2.408   2.408   2.408   2.408   2.408   2.408   2.408   2.408   2.408   2.408   2.408   2.408   2.408   2.408   2.408   2.408   2.408   2.408   2.408   2.408   2.408   2.408   2.408

   Mean standard deviation across all grid points:
      u component:    2.429 m/s
      v component:    2.408 m/s
      w component:    2.408 m/s


U-component (X) statistics from the interpolated hub point:

   Mean =  12.9650 m/s
   TI   =  19.0806 %


Normalizing Parameters for Binary Data (approximate statistics):

   UBar  =  12.9658 m/s
   TI(u) =  20.2170 %
   TI(v) =  18.5704 %
   TI(w) =  18.5704 %

   Height Offset =   0.0000 m
   Grid Base     =   1.0000 m

Creating a PERIODIC output file.


Processing complete.  116.16 CPU seconds used.
