
This summary file was generated by TurbSim (v2.00.07a-bjj, 14-Jun-2016) on 03-Nov-2023 at 03:24:07.


Runtime Options:

      4101  Random seed #1
    RANLUX  Type of random number generator
         F  Output binary HH turbulence parameters?
         F  Output formatted turbulence parameters?
         F  Output AeroDyn HH files?
         F  Output AeroDyn FF files?
         T  Output BLADED FF files?
         F  Output tower data?
         F  Output formatted FF files?
         F  Output coherent turbulence time step file?
         T  Clockwise rotation when looking downwind?
 0 -  NONE  IEC turbulence models scaled to exact specified standard deviation


Turbine/Model Specifications:

        36  Vertical grid-point matrix dimension
        36  Horizontal grid-point matrix dimension
     0.100  Time step [seconds]
   660.000  Analysis time [seconds]
   660.000  Usable output time [seconds]
   151.000  Hub height [m]
   300.000  Grid height [m]
   300.000  Grid width [m]
     0.000  Vertical flow angle [degrees]
     0.000  Horizontal flow angle [degrees]


Meteorological Boundary Conditions:

    IECVKM  IEC von Karman spectral model
         1  IEC standard: IEC 61400-1 Ed. 3: 2005
         A  IEC turbulence characteristic
       NTM  IEC Normal Turbulence Model
       N/A  IEC Extreme Turbulence Model (ETM) "c" parameter [m/s]
       PL   Wind profile type
   153.000  Reference height [m]
    18.000  Reference wind speed [m/s]
       N/A  Jet height [m]
     0.200  Power law exponent
     0.030  Surface roughness length [m]


Non-IEC Meteorological Boundary Conditions:

       N/A  Site latitude [degrees]
       N/A  Gradient Richardson number
       N/A  Friction or shear velocity [m/s]
       N/A  Mixing layer depth [m]
       N/A  Mean hub u'w' Reynolds stress
       N/A  Mean hub u'v' Reynolds stress
       N/A  Mean hub v'w' Reynolds stress


Spatial Coherence Models:

       IEC  u-component coherence model
      NONE  v-component coherence model
      NONE  w-component coherence model
(   12.000, 0.353E-03)  u-component coherence parameters
                   N/A  v-component coherence parameters
                   N/A  w-component coherence parameters
       N/A  Coherence exponent


You have requested that the following file(s) be generated:

   G:\2023\OpenWECDV1.0.0_x64\BaseLIne\wind\WindL_V_18_seed_4101.wnd (AeroDyn/BLADED full-field wnd file)


Turbulence Simulation Scaling Parameter Summary:

   Turbulence model used                            =  IEC von Karman
   Turbulence characteristic                        =  A
   IEC turbulence type                              =  Normal Turbulence Model
   IEC standard                                     =  IEC 61400-1 Ed. 3: 2005
   Mean wind speed at hub height                    =   17.953 m/s
   Expected value of turbulence intensity at 15 m/s =   16.000%
   Characteristic value of standard deviation       =    3.050 m/s
   Turbulence scale                                 =   42.000 m
   Isotropic integral scale                         =  147.000 m
   Characteristic value of hub turbulence intensity =   16.991%
   Gradient Richardson number                       =    0.000

   Wind profile type                                =  Power law
   Power law exponent                               =    0.200
   Mean shear across rotor disk                     =    0.047 (m/s)/m
   Assumed rotor diameter                           =  300.000 m
   Surface roughness length                         =    0.030 m

   Nyquist frequency of turbulent wind field        =    5.000 Hz

   Number of time steps in the FFT                  =     6600
   Number of time steps output                      =     6600
   Number of points simulated                       =     1297


Mean Flow Angles:

   Vertical   =   0.0 degrees
   Horizontal =   0.0 degrees

Mean Wind Speed Profile:

   Height    Wind Speed   Horizontal Angle  Vertical Angle  U-comp (X)   V-comp (Y)   W-comp (Z)
     (m)        (m/s)         (degrees)       (degrees)       (m/s)        (m/s)        (m/s)   
   ------    ----------   ----------------  --------------  ----------   ----------   ----------
    301.0       20.61            0.00            0.00         20.61         0.00         0.00
    292.4       20.49            0.00            0.00         20.49         0.00         0.00
    283.9       20.37            0.00            0.00         20.37         0.00         0.00
    275.3       20.24            0.00            0.00         20.24         0.00         0.00
    266.7       20.12            0.00            0.00         20.12         0.00         0.00
    258.1       19.99            0.00            0.00         19.99         0.00         0.00
    249.6       19.85            0.00            0.00         19.85         0.00         0.00
    241.0       19.71            0.00            0.00         19.71         0.00         0.00
    232.4       19.57            0.00            0.00         19.57         0.00         0.00
    223.9       19.42            0.00            0.00         19.42         0.00         0.00
    215.3       19.27            0.00            0.00         19.27         0.00         0.00
    206.7       19.12            0.00            0.00         19.12         0.00         0.00
    198.1       18.96            0.00            0.00         18.96         0.00         0.00
    189.6       18.79            0.00            0.00         18.79         0.00         0.00
    181.0       18.62            0.00            0.00         18.62         0.00         0.00
    172.4       18.44            0.00            0.00         18.44         0.00         0.00
    163.9       18.25            0.00            0.00         18.25         0.00         0.00
    155.3       18.05            0.00            0.00         18.05         0.00         0.00
    151.0       17.95            0.00            0.00         17.95         0.00         0.00
    146.7       17.85            0.00            0.00         17.85         0.00         0.00
    138.1       17.64            0.00            0.00         17.64         0.00         0.00
    129.6       17.41            0.00            0.00         17.41         0.00         0.00
    121.0       17.17            0.00            0.00         17.17         0.00         0.00
    112.4       16.92            0.00            0.00         16.92         0.00         0.00
    103.9       16.66            0.00            0.00         16.66         0.00         0.00
     95.3       16.37            0.00            0.00         16.37         0.00         0.00
     86.7       16.07            0.00            0.00         16.07         0.00         0.00
     78.1       15.74            0.00            0.00         15.74         0.00         0.00
     69.6       15.38            0.00            0.00         15.38         0.00         0.00
     61.0       14.98            0.00            0.00         14.98         0.00         0.00
     52.4       14.53            0.00            0.00         14.53         0.00         0.00
     43.9       14.02            0.00            0.00         14.02         0.00         0.00
     35.3       13.42            0.00            0.00         13.42         0.00         0.00
     26.7       12.70            0.00            0.00         12.70         0.00         0.00
     18.1       11.75            0.00            0.00         11.75         0.00         0.00
      9.6       10.34            0.00            0.00         10.34         0.00         0.00
      1.0        6.58            0.00            0.00          6.58         0.00         0.00


Harvested Random Seeds after Generation of the Random Numbers:

    119307688 K 1
            0 K 2


Hub-Height Simulated Turbulence Statistical Summary:

   Type of Wind        Min (m/s)   Mean (m/s)    Max (m/s)  Sigma (m/s)       TI (%)
   ----------------    ---------   ----------    ---------  -----------       ------
   Longitudinal (u)        10.87        17.95        26.23        2.686       14.964
   Lateral (v)            -10.37         0.00        10.13        2.997       16.694
   Vertical (w)           -11.09        -0.00         8.04        2.997       16.694
   U component             10.87        17.95        26.23        2.686       14.964
   V component            -10.37         0.00        10.13        2.997       16.694
   W component            -11.09        -0.00         8.04        2.997       16.694
   Horizontal (U&V)        10.91        18.21        26.26        2.648       14.545
   Total                   10.94        18.46        26.53        2.622       14.208

                       Min Reynolds     Mean Reynolds    Max Reynolds    Correlation
   Product             Stress (m/s)^2   Stress (m/s)^2   Stress (m/s)^2  Coefficient
   ----------------    --------------   --------------   --------------  -----------
   u'w'                    -44.296            -0.576            37.957        -0.071
   u'v'                    -47.928             0.244            53.062         0.030
   v'w'                    -42.846            -0.707            80.279        -0.079


   Friction Velocity (Ustar)  =      0.759 m/s
   Maximum Instantaneous TKE  =     84.826 (m/s)^2
   Maximum Instantaneous CTKE =     41.248 (m/s)^2


Grid Point Variance Summary:

   Y-coord -150.00 -141.43 -132.86 -124.29 -115.71 -107.14  -98.57  -90.00  -81.43  -72.86  -64.29  -55.71  -47.14  -38.57  -30.00  -21.43  -12.86   -4.29    4.29   12.86   21.43   30.00   38.57   47.14   55.71   64.29   72.86   81.43   90.00   98.57  107.14  115.71  124.29  132.86  141.43  150.00

   Height   Standard deviation at grid points for the u component:
   301.00    2.905   2.807   2.622   2.458   2.568   2.623   2.851   3.071   2.961   3.024   3.031   2.944   2.909   2.869   2.893   2.869   2.924   2.645   2.672   2.575   2.607   2.578   2.783   2.860   3.139   3.402   3.296   3.097   3.077   3.102   3.009   3.076   3.091   2.943   3.107   2.930
   292.43    2.743   2.581   2.668   2.491   2.599   2.618   2.732   3.027   2.947   2.968   2.845   3.004   2.906   3.003   2.840   2.932   2.873   2.666   2.754   2.721   2.623   2.883   2.891   2.971   3.113   3.205   3.051   3.032   3.037   3.008   3.119   3.209   3.310   3.115   3.178   3.041
   283.86    2.669   2.622   2.616   2.660   2.615   2.658   2.728   2.954   3.041   2.981   2.764   3.008   2.941   2.873   2.916   3.028   3.094   2.963   2.753   2.764   2.858   2.795   3.110   3.091   3.106   3.017   3.054   3.102   2.993   2.936   3.037   3.290   3.283   3.261   3.124   2.956
   275.29    2.723   2.513   2.620   2.655   2.664   2.754   2.709   2.852   2.847   2.746   2.748   2.963   3.002   2.605   2.758   2.997   2.980   3.075   2.904   2.879   2.822   2.866   3.090   3.080   2.920   2.902   3.138   3.086   2.852   2.934   3.055   3.124   3.066   2.956   2.980   2.987
   266.71    2.570   2.564   2.625   2.675   2.725   2.762   2.792   2.696   2.692   2.540   2.598   2.859   2.907   2.803   2.771   2.919   2.860   2.966   2.913   2.972   3.039   2.898   3.041   3.040   3.136   2.989   3.140   3.187   3.003   2.903   3.012   2.998   2.971   2.820   3.035   2.853
   258.14    2.554   2.511   2.493   2.557   2.606   2.833   2.782   2.706   2.568   2.703   2.698   2.679   2.858   2.871   2.960   2.760   2.850   2.736   2.872   2.902   2.929   2.915   2.998   3.110   3.071   2.910   2.907   3.042   2.988   2.866   2.924   3.015   2.992   2.992   2.903   2.847
   249.57    2.606   2.661   2.553   2.572   2.728   2.693   2.665   2.635   2.536   2.560   2.708   2.675   2.757   2.964   2.950   2.803   2.762   2.738   2.973   2.923   3.143   2.923   2.844   2.852   2.790   2.936   2.909   2.955   3.083   3.085   2.788   2.951   2.974   2.987   2.940   2.960
   241.00    2.662   2.525   2.553   2.613   2.634   2.801   2.672   2.641   2.648   2.774   2.778   2.838   2.797   2.828   2.701   2.711   2.696   2.603   2.721   2.809   2.983   2.872   2.749   2.803   2.940   2.881   2.912   2.932   2.862   2.981   3.039   2.947   2.846   2.905   3.057   2.896
   232.43    2.638   2.586   2.550   2.754   2.743   2.707   2.511   2.604   2.733   2.659   2.700   2.714   2.793   2.744   2.773   2.866   2.806   2.763   2.848   2.856   2.788   2.902   2.856   2.679   2.779   2.780   2.881   2.933   2.850   2.903   2.858   2.875   2.844   2.813   2.868   2.765
   223.86    2.625   2.435   2.562   2.710   2.586   2.673   2.670   2.681   2.686   2.638   2.720   2.649   2.649   2.616   2.607   2.707   2.665   2.608   2.792   2.798   2.823   2.793   2.780   2.802   2.664   2.752   2.831   2.918   2.857   2.932   2.919   2.811   2.726   2.753   2.832   2.818
   215.29    2.576   2.434   2.765   2.859   2.716   2.706   2.707   2.679   2.683   2.685   2.711   2.706   2.475   2.564   2.418   2.442   2.542   2.512   2.526   2.674   2.569   2.573   2.737   2.687   2.735   2.757   2.947   2.980   2.840   2.932   3.048   2.796   3.049   3.044   3.014   2.952
   206.71    2.644   2.680   2.580   2.696   2.640   2.562   2.676   2.720   2.760   2.798   2.677   2.595   2.616   2.471   2.481   2.569   2.584   2.499   2.582   2.459   2.376   2.311   2.485   2.748   2.784   2.862   2.906   2.983   2.898   2.985   3.129   3.081   3.239   3.228   3.253   3.215
   198.14    2.679   2.769   2.685   2.667   2.610   2.724   2.715   2.894   2.794   2.791   2.580   2.567   2.554   2.531   2.519   2.566   2.476   2.493   2.510   2.402   2.355   2.379   2.554   2.598   2.834   2.838   2.902   3.061   3.114   3.035   2.994   3.078   3.310   3.358   3.336   3.321
   189.57    2.714   2.757   2.836   2.684   2.647   2.578   2.732   2.673   2.744   2.753   2.762   2.601   2.688   2.806   2.555   2.562   2.747   2.660   2.684   2.637   2.517   2.533   2.547   2.661   2.881   2.886   2.785   2.926   3.096   3.216   3.246   3.343   3.288   3.418   3.227   3.257
   181.00    2.713   2.921   2.754   2.676   2.745   2.592   2.535   2.531   2.466   2.631   2.782   2.878   2.776   2.958   2.943   2.674   2.845   2.862   2.880   2.730   2.850   2.805   2.698   2.848   3.065   3.130   3.003   3.216   3.308   3.115   3.250   3.308   3.388   3.360   3.600   3.415
   172.43    2.838   2.888   2.855   2.586   2.612   2.611   2.603   2.549   2.453   2.680   2.772   2.918   2.800   2.914   2.755   2.728   2.724   2.883   2.847   2.706   2.727   2.930   2.946   3.155   3.298   3.286   3.291   3.423   3.542   3.402   3.364   3.080   3.246   3.493   3.550   3.378
   163.86    2.739   2.760   2.787   2.751   2.544   2.673   2.657   2.558   2.609   2.624   2.741   2.734   2.712   2.724   2.847   2.795   2.768   2.862   2.659   2.663   2.750   2.983   3.223   3.195   3.292   3.222   3.395   3.510   3.482   3.479   3.443   3.332   3.229   3.318   3.544   3.403
   155.29    2.633   2.567   2.639   2.664   2.818   2.548   2.511   2.544   2.635   2.655   2.499   2.663   2.599   2.617   2.693   2.804   2.835   2.607   2.752   2.816   2.928   3.067   3.208   3.305   3.274   3.224   3.383   3.547   3.481   3.589   3.542   3.378   3.273   3.419   3.555   3.385
   146.71    2.668   2.432   2.660   2.783   2.742   2.551   2.501   2.498   2.492   2.582   2.526   2.613   2.575   2.582   2.560   2.540   2.569   2.675   2.777   2.900   3.007   3.164   3.302   3.266   3.298   3.328   3.394   3.281   3.462   3.502   3.538   3.434   3.455   3.483   3.388   3.467
   138.14    2.792   2.632   2.732   2.722   2.563   2.566   2.423   2.669   2.580   2.537   2.592   2.644   2.764   2.639   2.699   2.506   2.645   2.698   2.774   2.948   2.943   3.010   3.185   3.210   3.324   3.457   3.263   3.153   3.350   3.306   3.467   3.418   3.317   3.375   3.435   3.238
   129.57    2.817   2.706   2.808   2.664   2.599   2.593   2.661   2.593   2.611   2.682   2.579   2.633   2.885   2.848   2.940   2.792   2.800   2.656   2.832   2.965   3.097   2.944   3.125   3.136   3.247   3.389   3.459   3.328   3.475   3.377   3.443   3.493   3.360   3.248   3.371   3.309
   121.00    2.847   2.877   2.869   2.911   2.673   2.599   2.648   2.804   2.678   2.548   2.644   2.749   2.868   2.816   2.815   2.874   2.869   2.946   3.078   3.122   2.992   3.004   3.065   3.259   3.343   3.324   3.252   3.110   3.337   3.385   3.334   3.446   3.196   3.215   3.255   3.119
   112.43    2.935   2.842   2.800   2.741   2.670   2.707   2.612   2.708   2.509   2.576   2.790   2.750   2.810   2.802   2.802   2.849   2.972   3.067   3.024   3.217   3.207   3.303   3.406   3.231   3.214   3.263   3.402   3.235   3.333   3.418   3.306   3.321   3.160   3.205   3.301   3.292
   103.86    3.057   3.079   2.868   2.704   2.654   2.634   2.469   2.645   2.781   2.838   2.898   2.759   2.830   2.689   2.577   2.594   2.785   2.868   3.087   3.068   3.114   3.310   3.384   3.133   3.008   3.225   3.275   3.215   3.293   3.562   3.324   3.332   3.257   3.350   3.285   3.126
    95.29    2.886   2.881   2.852   2.864   2.898   2.857   2.562   2.612   2.744   2.755   2.820   2.865   2.772   2.744   2.725   2.741   2.816   2.765   2.830   2.973   3.142   3.277   3.346   3.241   3.123   3.158   3.095   3.024   3.199   3.316   3.412   3.350   3.299   3.315   3.157   3.056
    86.71    3.050   2.918   3.008   2.959   2.903   2.893   2.765   2.803   2.705   2.648   2.626   2.684   2.764   2.743   2.726   2.660   2.830   2.978   3.051   3.099   3.148   3.028   3.140   3.159   3.099   2.980   3.132   3.104   3.152   3.117   3.289   3.409   3.280   3.214   3.105   3.018
    78.14    3.168   2.922   3.000   3.015   2.958   2.957   2.885   2.909   2.954   2.859   2.767   2.731   2.799   2.811   2.920   2.938   2.975   2.978   3.175   3.263   3.098   2.895   3.046   2.992   2.872   2.995   2.985   3.063   2.934   3.176   3.198   3.332   3.274   3.161   3.123   2.890
    69.57    3.067   2.966   2.978   2.830   3.048   3.031   2.961   2.979   3.072   2.962   2.892   2.895   2.973   2.886   2.842   2.860   3.122   3.223   3.234   3.070   3.034   3.055   2.976   3.058   2.992   2.968   2.961   3.034   2.999   3.138   3.240   3.229   3.203   3.049   3.074   3.021
    61.00    3.040   2.870   2.905   2.867   2.999   2.842   2.882   2.954   2.828   2.801   2.837   2.958   2.928   2.858   2.860   2.948   3.123   3.140   3.112   3.011   3.077   2.953   2.899   3.021   2.838   3.035   2.893   2.984   2.947   2.975   3.020   3.239   3.155   3.001   3.015   3.017
    52.43    2.994   3.018   2.834   2.944   2.827   2.808   2.865   2.854   2.916   2.865   2.728   3.087   3.045   2.848   2.843   2.958   2.847   2.889   2.941   2.846   3.013   2.948   2.631   2.879   2.899   3.001   2.984   2.919   2.949   2.913   3.010   3.106   3.174   3.158   3.147   2.857
    43.86    2.993   2.919   2.799   2.783   2.829   2.655   2.784   2.990   2.946   2.889   2.758   2.949   3.029   3.063   2.947   2.887   2.813   2.817   2.899   2.924   3.054   2.830   2.772   2.722   2.901   2.881   2.931   3.041   3.093   2.916   2.974   2.989   3.119   3.108   3.106   3.028
    35.29    3.095   2.807   2.852   2.728   2.785   2.806   2.820   2.871   2.920   2.794   2.909   3.006   3.088   2.985   2.792   2.822   2.623   2.772   2.877   2.866   2.926   2.898   3.006   2.724   2.870   2.942   2.978   3.180   3.107   3.121   3.113   3.054   3.048   2.932   2.862   2.792
    26.71    3.060   2.902   2.901   2.902   2.751   2.678   2.719   2.725   2.771   2.867   2.914   2.912   2.980   3.035   2.851   2.880   2.768   2.852   2.750   2.734   2.678   2.733   2.870   2.908   2.923   2.926   2.967   3.156   3.040   3.026   3.034   3.075   3.044   2.813   2.874   2.924
    18.14    2.995   2.889   2.841   2.853   2.896   2.811   2.797   2.906   2.746   2.852   2.965   3.045   2.985   3.090   3.007   2.885   2.892   2.836   2.682   2.602   2.745   2.729   2.688   2.909   2.922   2.914   2.975   2.886   3.017   2.864   2.831   2.985   2.954   2.747   2.956   2.886
     9.57    2.958   2.663   2.652   2.801   2.919   2.910   2.776   2.921   2.849   2.961   2.848   3.053   2.999   2.987   3.032   2.909   2.837   2.863   2.764   2.839   2.604   2.645   2.764   2.849   2.871   2.828   2.797   2.814   2.850   2.753   2.854   2.884   2.827   2.780   2.748   2.903
     1.00    2.987   2.917   2.971   2.827   2.831   2.759   2.658   2.654   2.797   2.842   2.843   2.798   2.915   2.916   2.939   2.721   2.902   2.980   2.951   2.947   2.835   2.634   2.828   2.822   2.786   2.902   2.798   2.722   2.625   2.598   2.786   2.928   2.883   2.790   2.760   2.925

   Height   Standard deviation at grid points for the v component:
   301.00    2.997   2.997   2.997   2.997   2.997   2.997   2.997   2.997   2.997   2.997   2.997   2.997   2.997   2.997   2.997   2.997   2.997   2.997   2.997   2.997   2.997   2.997   2.997   2.997   2.997   2.997   2.997   2.997   2.997   2.997   2.997   2.997   2.997   2.997   2.997   2.997
   292.43    2.997   2.997   2.997   2.997   2.997   2.997   2.997   2.997   2.997   2.997   2.997   2.997   2.997   2.997   2.997   2.997   2.997   2.997   2.997   2.997   2.997   2.997   2.997   2.997   2.997   2.997   2.997   2.997   2.997   2.997   2.997   2.997   2.997   2.997   2.997   2.997
   283.86    2.997   2.997   2.997   2.997   2.997   2.997   2.997   2.997   2.997   2.997   2.997   2.997   2.997   2.997   2.997   2.997   2.997   2.997   2.997   2.997   2.997   2.997   2.997   2.997   2.997   2.997   2.997   2.997   2.997   2.997   2.997   2.997   2.997   2.997   2.997   2.997
   275.29    2.997   2.997   2.997   2.997   2.997   2.997   2.997   2.997   2.997   2.997   2.997   2.997   2.997   2.997   2.997   2.997   2.997   2.997   2.997   2.997   2.997   2.997   2.997   2.997   2.997   2.997   2.997   2.997   2.997   2.997   2.997   2.997   2.997   2.997   2.997   2.997
   266.71    2.997   2.997   2.997   2.997   2.997   2.997   2.997   2.997   2.997   2.997   2.997   2.997   2.997   2.997   2.997   2.997   2.997   2.997   2.997   2.997   2.997   2.997   2.997   2.997   2.997   2.997   2.997   2.997   2.997   2.997   2.997   2.997   2.997   2.997   2.997   2.997
   258.14    2.997   2.997   2.997   2.997   2.997   2.997   2.997   2.997   2.997   2.997   2.997   2.997   2.997   2.997   2.997   2.997   2.997   2.997   2.997   2.997   2.997   2.997   2.997   2.997   2.997   2.997   2.997   2.997   2.997   2.997   2.997   2.997   2.997   2.997   2.997   2.997
   249.57    2.997   2.997   2.997   2.997   2.997   2.997   2.997   2.997   2.997   2.997   2.997   2.997   2.997   2.997   2.997   2.997   2.997   2.997   2.997   2.997   2.997   2.997   2.997   2.997   2.997   2.997   2.997   2.997   2.997   2.997   2.997   2.997   2.997   2.997   2.997   2.997
   241.00    2.997   2.997   2.997   2.997   2.997   2.997   2.997   2.997   2.997   2.997   2.997   2.997   2.997   2.997   2.997   2.997   2.997   2.997   2.997   2.997   2.997   2.997   2.997   2.997   2.997   2.997   2.997   2.997   2.997   2.997   2.997   2.997   2.997   2.997   2.997   2.997
   232.43    2.997   2.997   2.997   2.997   2.997   2.997   2.997   2.997   2.997   2.997   2.997   2.997   2.997   2.997   2.997   2.997   2.997   2.997   2.997   2.997   2.997   2.997   2.997   2.997   2.997   2.997   2.997   2.997   2.997   2.997   2.997   2.997   2.997   2.997   2.997   2.997
   223.86    2.997   2.997   2.997   2.997   2.997   2.997   2.997   2.997   2.997   2.997   2.997   2.997   2.997   2.997   2.997   2.997   2.997   2.997   2.997   2.997   2.997   2.997   2.997   2.997   2.997   2.997   2.997   2.997   2.997   2.997   2.997   2.997   2.997   2.997   2.997   2.997
   215.29    2.997   2.997   2.997   2.997   2.997   2.997   2.997   2.997   2.997   2.997   2.997   2.997   2.997   2.997   2.997   2.997   2.997   2.997   2.997   2.997   2.997   2.997   2.997   2.997   2.997   2.997   2.997   2.997   2.997   2.997   2.997   2.997   2.997   2.997   2.997   2.997
   206.71    2.997   2.997   2.997   2.997   2.997   2.997   2.997   2.997   2.997   2.997   2.997   2.997   2.997   2.997   2.997   2.997   2.997   2.997   2.997   2.997   2.997   2.997   2.997   2.997   2.997   2.997   2.997   2.997   2.997   2.997   2.997   2.997   2.997   2.997   2.997   2.997
   198.14    2.997   2.997   2.997   2.997   2.997   2.997   2.997   2.997   2.997   2.997   2.997   2.997   2.997   2.997   2.997   2.997   2.997   2.997   2.997   2.997   2.997   2.997   2.997   2.997   2.997   2.997   2.997   2.997   2.997   2.997   2.997   2.997   2.997   2.997   2.997   2.997
   189.57    2.997   2.997   2.997   2.997   2.997   2.997   2.997   2.997   2.997   2.997   2.997   2.997   2.997   2.997   2.997   2.997   2.997   2.997   2.997   2.997   2.997   2.997   2.997   2.997   2.997   2.997   2.997   2.997   2.997   2.997   2.997   2.997   2.997   2.997   2.997   2.997
   181.00    2.997   2.997   2.997   2.997   2.997   2.997   2.997   2.997   2.997   2.997   2.997   2.997   2.997   2.997   2.997   2.997   2.997   2.997   2.997   2.997   2.997   2.997   2.997   2.997   2.997   2.997   2.997   2.997   2.997   2.997   2.997   2.997   2.997   2.997   2.997   2.997
   172.43    2.997   2.997   2.997   2.997   2.997   2.997   2.997   2.997   2.997   2.997   2.997   2.997   2.997   2.997   2.997   2.997   2.997   2.997   2.997   2.997   2.997   2.997   2.997   2.997   2.997   2.997   2.997   2.997   2.997   2.997   2.997   2.997   2.997   2.997   2.997   2.997
   163.86    2.997   2.997   2.997   2.997   2.997   2.997   2.997   2.997   2.997   2.997   2.997   2.997   2.997   2.997   2.997   2.997   2.997   2.997   2.997   2.997   2.997   2.997   2.997   2.997   2.997   2.997   2.997   2.997   2.997   2.997   2.997   2.997   2.997   2.997   2.997   2.997
   155.29    2.997   2.997   2.997   2.997   2.997   2.997   2.997   2.997   2.997   2.997   2.997   2.997   2.997   2.997   2.997   2.997   2.997   2.997   2.997   2.997   2.997   2.997   2.997   2.997   2.997   2.997   2.997   2.997   2.997   2.997   2.997   2.997   2.997   2.997   2.997   2.997
   146.71    2.997   2.997   2.997   2.997   2.997   2.997   2.997   2.997   2.997   2.997   2.997   2.997   2.997   2.997   2.997   2.997   2.997   2.997   2.997   2.997   2.997   2.997   2.997   2.997   2.997   2.997   2.997   2.997   2.997   2.997   2.997   2.997   2.997   2.997   2.997   2.997
   138.14    2.997   2.997   2.997   2.997   2.997   2.997   2.997   2.997   2.997   2.997   2.997   2.997   2.997   2.997   2.997   2.997   2.997   2.997   2.997   2.997   2.997   2.997   2.997   2.997   2.997   2.997   2.997   2.997   2.997   2.997   2.997   2.997   2.997   2.997   2.997   2.997
   129.57    2.997   2.997   2.997   2.997   2.997   2.997   2.997   2.997   2.997   2.997   2.997   2.997   2.997   2.997   2.997   2.997   2.997   2.997   2.997   2.997   2.997   2.997   2.997   2.997   2.997   2.997   2.997   2.997   2.997   2.997   2.997   2.997   2.997   2.997   2.997   2.997
   121.00    2.997   2.997   2.997   2.997   2.997   2.997   2.997   2.997   2.997   2.997   2.997   2.997   2.997   2.997   2.997   2.997   2.997   2.997   2.997   2.997   2.997   2.997   2.997   2.997   2.997   2.997   2.997   2.997   2.997   2.997   2.997   2.997   2.997   2.997   2.997   2.997
   112.43    2.997   2.997   2.997   2.997   2.997   2.997   2.997   2.997   2.997   2.997   2.997   2.997   2.997   2.997   2.997   2.997   2.997   2.997   2.997   2.997   2.997   2.997   2.997   2.997   2.997   2.997   2.997   2.997   2.997   2.997   2.997   2.997   2.997   2.997   2.997   2.997
   103.86    2.997   2.997   2.997   2.997   2.997   2.997   2.997   2.997   2.997   2.997   2.997   2.997   2.997   2.997   2.997   2.997   2.997   2.997   2.997   2.997   2.997   2.997   2.997   2.997   2.997   2.997   2.997   2.997   2.997   2.997   2.997   2.997   2.997   2.997   2.997   2.997
    95.29    2.997   2.997   2.997   2.997   2.997   2.997   2.997   2.997   2.997   2.997   2.997   2.997   2.997   2.997   2.997   2.997   2.997   2.997   2.997   2.997   2.997   2.997   2.997   2.997   2.997   2.997   2.997   2.997   2.997   2.997   2.997   2.997   2.997   2.997   2.997   2.997
    86.71    2.997   2.997   2.997   2.997   2.997   2.997   2.997   2.997   2.997   2.997   2.997   2.997   2.997   2.997   2.997   2.997   2.997   2.997   2.997   2.997   2.997   2.997   2.997   2.997   2.997   2.997   2.997   2.997   2.997   2.997   2.997   2.997   2.997   2.997   2.997   2.997
    78.14    2.997   2.997   2.997   2.997   2.997   2.997   2.997   2.997   2.997   2.997   2.997   2.997   2.997   2.997   2.997   2.997   2.997   2.997   2.997   2.997   2.997   2.997   2.997   2.997   2.997   2.997   2.997   2.997   2.997   2.997   2.997   2.997   2.997   2.997   2.997   2.997
    69.57    2.997   2.997   2.997   2.997   2.997   2.997   2.997   2.997   2.997   2.997   2.997   2.997   2.997   2.997   2.997   2.997   2.997   2.997   2.997   2.997   2.997   2.997   2.997   2.997   2.997   2.997   2.997   2.997   2.997   2.997   2.997   2.997   2.997   2.997   2.997   2.997
    61.00    2.997   2.997   2.997   2.997   2.997   2.997   2.997   2.997   2.997   2.997   2.997   2.997   2.997   2.997   2.997   2.997   2.997   2.997   2.997   2.997   2.997   2.997   2.997   2.997   2.997   2.997   2.997   2.997   2.997   2.997   2.997   2.997   2.997   2.997   2.997   2.997
    52.43    2.997   2.997   2.997   2.997   2.997   2.997   2.997   2.997   2.997   2.997   2.997   2.997   2.997   2.997   2.997   2.997   2.997   2.997   2.997   2.997   2.997   2.997   2.997   2.997   2.997   2.997   2.997   2.997   2.997   2.997   2.997   2.997   2.997   2.997   2.997   2.997
    43.86    2.997   2.997   2.997   2.997   2.997   2.997   2.997   2.997   2.997   2.997   2.997   2.997   2.997   2.997   2.997   2.997   2.997   2.997   2.997   2.997   2.997   2.997   2.997   2.997   2.997   2.997   2.997   2.997   2.997   2.997   2.997   2.997   2.997   2.997   2.997   2.997
    35.29    2.997   2.997   2.997   2.997   2.997   2.997   2.997   2.997   2.997   2.997   2.997   2.997   2.997   2.997   2.997   2.997   2.997   2.997   2.997   2.997   2.997   2.997   2.997   2.997   2.997   2.997   2.997   2.997   2.997   2.997   2.997   2.997   2.997   2.997   2.997   2.997
    26.71    2.997   2.997   2.997   2.997   2.997   2.997   2.997   2.997   2.997   2.997   2.997   2.997   2.997   2.997   2.997   2.997   2.997   2.997   2.997   2.997   2.997   2.997   2.997   2.997   2.997   2.997   2.997   2.997   2.997   2.997   2.997   2.997   2.997   2.997   2.997   2.997
    18.14    2.997   2.997   2.997   2.997   2.997   2.997   2.997   2.997   2.997   2.997   2.997   2.997   2.997   2.997   2.997   2.997   2.997   2.997   2.997   2.997   2.997   2.997   2.997   2.997   2.997   2.997   2.997   2.997   2.997   2.997   2.997   2.997   2.997   2.997   2.997   2.997
     9.57    2.997   2.997   2.997   2.997   2.997   2.997   2.997   2.997   2.997   2.997   2.997   2.997   2.997   2.997   2.997   2.997   2.997   2.997   2.997   2.997   2.997   2.997   2.997   2.997   2.997   2.997   2.997   2.997   2.997   2.997   2.997   2.997   2.997   2.997   2.997   2.997
     1.00    2.997   2.997   2.997   2.997   2.997   2.997   2.997   2.997   2.997   2.997   2.997   2.997   2.997   2.997   2.997   2.997   2.997   2.997   2.997   2.997   2.997   2.997   2.997   2.997   2.997   2.997   2.997   2.997   2.997   2.997   2.997   2.997   2.997   2.997   2.997   2.997

   Height   Standard deviation at grid points for the w component:
   301.00    2.997   2.997   2.997   2.997   2.997   2.997   2.997   2.997   2.997   2.997   2.997   2.997   2.997   2.997   2.997   2.997   2.997   2.997   2.997   2.997   2.997   2.997   2.997   2.997   2.997   2.997   2.997   2.997   2.997   2.997   2.997   2.997   2.997   2.997   2.997   2.997
   292.43    2.997   2.997   2.997   2.997   2.997   2.997   2.997   2.997   2.997   2.997   2.997   2.997   2.997   2.997   2.997   2.997   2.997   2.997   2.997   2.997   2.997   2.997   2.997   2.997   2.997   2.997   2.997   2.997   2.997   2.997   2.997   2.997   2.997   2.997   2.997   2.997
   283.86    2.997   2.997   2.997   2.997   2.997   2.997   2.997   2.997   2.997   2.997   2.997   2.997   2.997   2.997   2.997   2.997   2.997   2.997   2.997   2.997   2.997   2.997   2.997   2.997   2.997   2.997   2.997   2.997   2.997   2.997   2.997   2.997   2.997   2.997   2.997   2.997
   275.29    2.997   2.997   2.997   2.997   2.997   2.997   2.997   2.997   2.997   2.997   2.997   2.997   2.997   2.997   2.997   2.997   2.997   2.997   2.997   2.997   2.997   2.997   2.997   2.997   2.997   2.997   2.997   2.997   2.997   2.997   2.997   2.997   2.997   2.997   2.997   2.997
   266.71    2.997   2.997   2.997   2.997   2.997   2.997   2.997   2.997   2.997   2.997   2.997   2.997   2.997   2.997   2.997   2.997   2.997   2.997   2.997   2.997   2.997   2.997   2.997   2.997   2.997   2.997   2.997   2.997   2.997   2.997   2.997   2.997   2.997   2.997   2.997   2.997
   258.14    2.997   2.997   2.997   2.997   2.997   2.997   2.997   2.997   2.997   2.997   2.997   2.997   2.997   2.997   2.997   2.997   2.997   2.997   2.997   2.997   2.997   2.997   2.997   2.997   2.997   2.997   2.997   2.997   2.997   2.997   2.997   2.997   2.997   2.997   2.997   2.997
   249.57    2.997   2.997   2.997   2.997   2.997   2.997   2.997   2.997   2.997   2.997   2.997   2.997   2.997   2.997   2.997   2.997   2.997   2.997   2.997   2.997   2.997   2.997   2.997   2.997   2.997   2.997   2.997   2.997   2.997   2.997   2.997   2.997   2.997   2.997   2.997   2.997
   241.00    2.997   2.997   2.997   2.997   2.997   2.997   2.997   2.997   2.997   2.997   2.997   2.997   2.997   2.997   2.997   2.997   2.997   2.997   2.997   2.997   2.997   2.997   2.997   2.997   2.997   2.997   2.997   2.997   2.997   2.997   2.997   2.997   2.997   2.997   2.997   2.997
   232.43    2.997   2.997   2.997   2.997   2.997   2.997   2.997   2.997   2.997   2.997   2.997   2.997   2.997   2.997   2.997   2.997   2.997   2.997   2.997   2.997   2.997   2.997   2.997   2.997   2.997   2.997   2.997   2.997   2.997   2.997   2.997   2.997   2.997   2.997   2.997   2.997
   223.86    2.997   2.997   2.997   2.997   2.997   2.997   2.997   2.997   2.997   2.997   2.997   2.997   2.997   2.997   2.997   2.997   2.997   2.997   2.997   2.997   2.997   2.997   2.997   2.997   2.997   2.997   2.997   2.997   2.997   2.997   2.997   2.997   2.997   2.997   2.997   2.997
   215.29    2.997   2.997   2.997   2.997   2.997   2.997   2.997   2.997   2.997   2.997   2.997   2.997   2.997   2.997   2.997   2.997   2.997   2.997   2.997   2.997   2.997   2.997   2.997   2.997   2.997   2.997   2.997   2.997   2.997   2.997   2.997   2.997   2.997   2.997   2.997   2.997
   206.71    2.997   2.997   2.997   2.997   2.997   2.997   2.997   2.997   2.997   2.997   2.997   2.997   2.997   2.997   2.997   2.997   2.997   2.997   2.997   2.997   2.997   2.997   2.997   2.997   2.997   2.997   2.997   2.997   2.997   2.997   2.997   2.997   2.997   2.997   2.997   2.997
   198.14    2.997   2.997   2.997   2.997   2.997   2.997   2.997   2.997   2.997   2.997   2.997   2.997   2.997   2.997   2.997   2.997   2.997   2.997   2.997   2.997   2.997   2.997   2.997   2.997   2.997   2.997   2.997   2.997   2.997   2.997   2.997   2.997   2.997   2.997   2.997   2.997
   189.57    2.997   2.997   2.997   2.997   2.997   2.997   2.997   2.997   2.997   2.997   2.997   2.997   2.997   2.997   2.997   2.997   2.997   2.997   2.997   2.997   2.997   2.997   2.997   2.997   2.997   2.997   2.997   2.997   2.997   2.997   2.997   2.997   2.997   2.997   2.997   2.997
   181.00    2.997   2.997   2.997   2.997   2.997   2.997   2.997   2.997   2.997   2.997   2.997   2.997   2.997   2.997   2.997   2.997   2.997   2.997   2.997   2.997   2.997   2.997   2.997   2.997   2.997   2.997   2.997   2.997   2.997   2.997   2.997   2.997   2.997   2.997   2.997   2.997
   172.43    2.997   2.997   2.997   2.997   2.997   2.997   2.997   2.997   2.997   2.997   2.997   2.997   2.997   2.997   2.997   2.997   2.997   2.997   2.997   2.997   2.997   2.997   2.997   2.997   2.997   2.997   2.997   2.997   2.997   2.997   2.997   2.997   2.997   2.997   2.997   2.997
   163.86    2.997   2.997   2.997   2.997   2.997   2.997   2.997   2.997   2.997   2.997   2.997   2.997   2.997   2.997   2.997   2.997   2.997   2.997   2.997   2.997   2.997   2.997   2.997   2.997   2.997   2.997   2.997   2.997   2.997   2.997   2.997   2.997   2.997   2.997   2.997   2.997
   155.29    2.997   2.997   2.997   2.997   2.997   2.997   2.997   2.997   2.997   2.997   2.997   2.997   2.997   2.997   2.997   2.997   2.997   2.997   2.997   2.997   2.997   2.997   2.997   2.997   2.997   2.997   2.997   2.997   2.997   2.997   2.997   2.997   2.997   2.997   2.997   2.997
   146.71    2.997   2.997   2.997   2.997   2.997   2.997   2.997   2.997   2.997   2.997   2.997   2.997   2.997   2.997   2.997   2.997   2.997   2.997   2.997   2.997   2.997   2.997   2.997   2.997   2.997   2.997   2.997   2.997   2.997   2.997   2.997   2.997   2.997   2.997   2.997   2.997
   138.14    2.997   2.997   2.997   2.997   2.997   2.997   2.997   2.997   2.997   2.997   2.997   2.997   2.997   2.997   2.997   2.997   2.997   2.997   2.997   2.997   2.997   2.997   2.997   2.997   2.997   2.997   2.997   2.997   2.997   2.997   2.997   2.997   2.997   2.997   2.997   2.997
   129.57    2.997   2.997   2.997   2.997   2.997   2.997   2.997   2.997   2.997   2.997   2.997   2.997   2.997   2.997   2.997   2.997   2.997   2.997   2.997   2.997   2.997   2.997   2.997   2.997   2.997   2.997   2.997   2.997   2.997   2.997   2.997   2.997   2.997   2.997   2.997   2.997
   121.00    2.997   2.997   2.997   2.997   2.997   2.997   2.997   2.997   2.997   2.997   2.997   2.997   2.997   2.997   2.997   2.997   2.997   2.997   2.997   2.997   2.997   2.997   2.997   2.997   2.997   2.997   2.997   2.997   2.997   2.997   2.997   2.997   2.997   2.997   2.997   2.997
   112.43    2.997   2.997   2.997   2.997   2.997   2.997   2.997   2.997   2.997   2.997   2.997   2.997   2.997   2.997   2.997   2.997   2.997   2.997   2.997   2.997   2.997   2.997   2.997   2.997   2.997   2.997   2.997   2.997   2.997   2.997   2.997   2.997   2.997   2.997   2.997   2.997
   103.86    2.997   2.997   2.997   2.997   2.997   2.997   2.997   2.997   2.997   2.997   2.997   2.997   2.997   2.997   2.997   2.997   2.997   2.997   2.997   2.997   2.997   2.997   2.997   2.997   2.997   2.997   2.997   2.997   2.997   2.997   2.997   2.997   2.997   2.997   2.997   2.997
    95.29    2.997   2.997   2.997   2.997   2.997   2.997   2.997   2.997   2.997   2.997   2.997   2.997   2.997   2.997   2.997   2.997   2.997   2.997   2.997   2.997   2.997   2.997   2.997   2.997   2.997   2.997   2.997   2.997   2.997   2.997   2.997   2.997   2.997   2.997   2.997   2.997
    86.71    2.997   2.997   2.997   2.997   2.997   2.997   2.997   2.997   2.997   2.997   2.997   2.997   2.997   2.997   2.997   2.997   2.997   2.997   2.997   2.997   2.997   2.997   2.997   2.997   2.997   2.997   2.997   2.997   2.997   2.997   2.997   2.997   2.997   2.997   2.997   2.997
    78.14    2.997   2.997   2.997   2.997   2.997   2.997   2.997   2.997   2.997   2.997   2.997   2.997   2.997   2.997   2.997   2.997   2.997   2.997   2.997   2.997   2.997   2.997   2.997   2.997   2.997   2.997   2.997   2.997   2.997   2.997   2.997   2.997   2.997   2.997   2.997   2.997
    69.57    2.997   2.997   2.997   2.997   2.997   2.997   2.997   2.997   2.997   2.997   2.997   2.997   2.997   2.997   2.997   2.997   2.997   2.997   2.997   2.997   2.997   2.997   2.997   2.997   2.997   2.997   2.997   2.997   2.997   2.997   2.997   2.997   2.997   2.997   2.997   2.997
    61.00    2.997   2.997   2.997   2.997   2.997   2.997   2.997   2.997   2.997   2.997   2.997   2.997   2.997   2.997   2.997   2.997   2.997   2.997   2.997   2.997   2.997   2.997   2.997   2.997   2.997   2.997   2.997   2.997   2.997   2.997   2.997   2.997   2.997   2.997   2.997   2.997
    52.43    2.997   2.997   2.997   2.997   2.997   2.997   2.997   2.997   2.997   2.997   2.997   2.997   2.997   2.997   2.997   2.997   2.997   2.997   2.997   2.997   2.997   2.997   2.997   2.997   2.997   2.997   2.997   2.997   2.997   2.997   2.997   2.997   2.997   2.997   2.997   2.997
    43.86    2.997   2.997   2.997   2.997   2.997   2.997   2.997   2.997   2.997   2.997   2.997   2.997   2.997   2.997   2.997   2.997   2.997   2.997   2.997   2.997   2.997   2.997   2.997   2.997   2.997   2.997   2.997   2.997   2.997   2.997   2.997   2.997   2.997   2.997   2.997   2.997
    35.29    2.997   2.997   2.997   2.997   2.997   2.997   2.997   2.997   2.997   2.997   2.997   2.997   2.997   2.997   2.997   2.997   2.997   2.997   2.997   2.997   2.997   2.997   2.997   2.997   2.997   2.997   2.997   2.997   2.997   2.997   2.997   2.997   2.997   2.997   2.997   2.997
    26.71    2.997   2.997   2.997   2.997   2.997   2.997   2.997   2.997   2.997   2.997   2.997   2.997   2.997   2.997   2.997   2.997   2.997   2.997   2.997   2.997   2.997   2.997   2.997   2.997   2.997   2.997   2.997   2.997   2.997   2.997   2.997   2.997   2.997   2.997   2.997   2.997
    18.14    2.997   2.997   2.997   2.997   2.997   2.997   2.997   2.997   2.997   2.997   2.997   2.997   2.997   2.997   2.997   2.997   2.997   2.997   2.997   2.997   2.997   2.997   2.997   2.997   2.997   2.997   2.997   2.997   2.997   2.997   2.997   2.997   2.997   2.997   2.997   2.997
     9.57    2.997   2.997   2.997   2.997   2.997   2.997   2.997   2.997   2.997   2.997   2.997   2.997   2.997   2.997   2.997   2.997   2.997   2.997   2.997   2.997   2.997   2.997   2.997   2.997   2.997   2.997   2.997   2.997   2.997   2.997   2.997   2.997   2.997   2.997   2.997   2.997
     1.00    2.997   2.997   2.997   2.997   2.997   2.997   2.997   2.997   2.997   2.997   2.997   2.997   2.997   2.997   2.997   2.997   2.997   2.997   2.997   2.997   2.997   2.997   2.997   2.997   2.997   2.997   2.997   2.997   2.997   2.997   2.997   2.997   2.997   2.997   2.997   2.997

   Mean standard deviation across all grid points:
      u component:    2.899 m/s
      v component:    2.997 m/s
      w component:    2.997 m/s


U-component (X) statistics from the interpolated hub point:

   Mean =  17.9515 m/s
   TI   =  12.9745 %


Normalizing Parameters for Binary Data (approximate statistics):

   UBar  =  17.9527 m/s
   TI(u) =  14.9636 %
   TI(v) =  16.6941 %
   TI(w) =  16.6941 %

   Height Offset =   0.0000 m
   Grid Base     =   1.0000 m

Creating a PERIODIC output file.


Processing complete.  113.28 CPU seconds used.
