
This summary file was generated by TurbSim (v2.00.07a-bjj, 14-Jun-2016) on 03-Nov-2023 at 03:32:18.


Runtime Options:

      1601  Random seed #1
    RANLUX  Type of random number generator
         F  Output binary HH turbulence parameters?
         F  Output formatted turbulence parameters?
         F  Output AeroDyn HH files?
         F  Output AeroDyn FF files?
         T  Output BLADED FF files?
         F  Output tower data?
         F  Output formatted FF files?
         F  Output coherent turbulence time step file?
         T  Clockwise rotation when looking downwind?
 0 -  NONE  IEC turbulence models scaled to exact specified standard deviation


Turbine/Model Specifications:

        36  Vertical grid-point matrix dimension
        36  Horizontal grid-point matrix dimension
     0.100  Time step [seconds]
   660.000  Analysis time [seconds]
   660.000  Usable output time [seconds]
   151.000  Hub height [m]
   300.000  Grid height [m]
   300.000  Grid width [m]
     0.000  Vertical flow angle [degrees]
     0.000  Horizontal flow angle [degrees]


Meteorological Boundary Conditions:

    IECVKM  IEC von Karman spectral model
         1  IEC standard: IEC 61400-1 Ed. 3: 2005
         A  IEC turbulence characteristic
       NTM  IEC Normal Turbulence Model
       N/A  IEC Extreme Turbulence Model (ETM) "c" parameter [m/s]
       PL   Wind profile type
   153.000  Reference height [m]
    10.000  Reference wind speed [m/s]
       N/A  Jet height [m]
     0.200  Power law exponent
     0.030  Surface roughness length [m]


Non-IEC Meteorological Boundary Conditions:

       N/A  Site latitude [degrees]
       N/A  Gradient Richardson number
       N/A  Friction or shear velocity [m/s]
       N/A  Mixing layer depth [m]
       N/A  Mean hub u'w' Reynolds stress
       N/A  Mean hub u'v' Reynolds stress
       N/A  Mean hub v'w' Reynolds stress


Spatial Coherence Models:

       IEC  u-component coherence model
      NONE  v-component coherence model
      NONE  w-component coherence model
(   12.000, 0.353E-03)  u-component coherence parameters
                   N/A  v-component coherence parameters
                   N/A  w-component coherence parameters
       N/A  Coherence exponent


You have requested that the following file(s) be generated:

   G:\2023\OpenWECDV1.0.0_x64\BaseLIne\wind\WindL_V_10_seed_1601.wnd (AeroDyn/BLADED full-field wnd file)


Turbulence Simulation Scaling Parameter Summary:

   Turbulence model used                            =  IEC von Karman
   Turbulence characteristic                        =  A
   IEC turbulence type                              =  Normal Turbulence Model
   IEC standard                                     =  IEC 61400-1 Ed. 3: 2005
   Mean wind speed at hub height                    =    9.974 m/s
   Expected value of turbulence intensity at 15 m/s =   16.000%
   Characteristic value of standard deviation       =    2.093 m/s
   Turbulence scale                                 =   42.000 m
   Isotropic integral scale                         =  147.000 m
   Characteristic value of hub turbulence intensity =   20.984%
   Gradient Richardson number                       =    0.000

   Wind profile type                                =  Power law
   Power law exponent                               =    0.200
   Mean shear across rotor disk                     =    0.026 (m/s)/m
   Assumed rotor diameter                           =  300.000 m
   Surface roughness length                         =    0.030 m

   Nyquist frequency of turbulent wind field        =    5.000 Hz

   Number of time steps in the FFT                  =     6600
   Number of time steps output                      =     6600
   Number of points simulated                       =     1297


Mean Flow Angles:

   Vertical   =   0.0 degrees
   Horizontal =   0.0 degrees

Mean Wind Speed Profile:

   Height    Wind Speed   Horizontal Angle  Vertical Angle  U-comp (X)   V-comp (Y)   W-comp (Z)
     (m)        (m/s)         (degrees)       (degrees)       (m/s)        (m/s)        (m/s)   
   ------    ----------   ----------------  --------------  ----------   ----------   ----------
    301.0       11.45            0.00            0.00         11.45         0.00         0.00
    292.4       11.38            0.00            0.00         11.38         0.00         0.00
    283.9       11.32            0.00            0.00         11.32         0.00         0.00
    275.3       11.25            0.00            0.00         11.25         0.00         0.00
    266.7       11.18            0.00            0.00         11.18         0.00         0.00
    258.1       11.10            0.00            0.00         11.10         0.00         0.00
    249.6       11.03            0.00            0.00         11.03         0.00         0.00
    241.0       10.95            0.00            0.00         10.95         0.00         0.00
    232.4       10.87            0.00            0.00         10.87         0.00         0.00
    223.9       10.79            0.00            0.00         10.79         0.00         0.00
    215.3       10.71            0.00            0.00         10.71         0.00         0.00
    206.7       10.62            0.00            0.00         10.62         0.00         0.00
    198.1       10.53            0.00            0.00         10.53         0.00         0.00
    189.6       10.44            0.00            0.00         10.44         0.00         0.00
    181.0       10.34            0.00            0.00         10.34         0.00         0.00
    172.4       10.24            0.00            0.00         10.24         0.00         0.00
    163.9       10.14            0.00            0.00         10.14         0.00         0.00
    155.3       10.03            0.00            0.00         10.03         0.00         0.00
    151.0        9.97            0.00            0.00          9.97         0.00         0.00
    146.7        9.92            0.00            0.00          9.92         0.00         0.00
    138.1        9.80            0.00            0.00          9.80         0.00         0.00
    129.6        9.67            0.00            0.00          9.67         0.00         0.00
    121.0        9.54            0.00            0.00          9.54         0.00         0.00
    112.4        9.40            0.00            0.00          9.40         0.00         0.00
    103.9        9.25            0.00            0.00          9.25         0.00         0.00
     95.3        9.10            0.00            0.00          9.10         0.00         0.00
     86.7        8.93            0.00            0.00          8.93         0.00         0.00
     78.1        8.74            0.00            0.00          8.74         0.00         0.00
     69.6        8.54            0.00            0.00          8.54         0.00         0.00
     61.0        8.32            0.00            0.00          8.32         0.00         0.00
     52.4        8.07            0.00            0.00          8.07         0.00         0.00
     43.9        7.79            0.00            0.00          7.79         0.00         0.00
     35.3        7.46            0.00            0.00          7.46         0.00         0.00
     26.7        7.05            0.00            0.00          7.05         0.00         0.00
     18.1        6.53            0.00            0.00          6.53         0.00         0.00
      9.6        5.74            0.00            0.00          5.74         0.00         0.00
      1.0        3.66            0.00            0.00          3.66         0.00         0.00


Harvested Random Seeds after Generation of the Random Numbers:

    119307688 K 1
            0 K 2


Hub-Height Simulated Turbulence Statistical Summary:

   Type of Wind        Min (m/s)   Mean (m/s)    Max (m/s)  Sigma (m/s)       TI (%)
   ----------------    ---------   ----------    ---------  -----------       ------
   Longitudinal (u)         3.91         9.97        15.55        1.948       19.532
   Lateral (v)             -5.98        -0.00         5.60        2.052       20.578
   Vertical (w)            -6.38        -0.00         7.25        2.052       20.578
   U component              3.91         9.97        15.55        1.948       19.532
   V component             -5.98        -0.00         5.60        2.052       20.578
   W component             -6.38        -0.00         7.25        2.052       20.578
   Horizontal (U&V)         4.60        10.19        15.55        1.897       18.610
   Total                    4.62        10.40        15.56        1.901       18.288

                       Min Reynolds     Mean Reynolds    Max Reynolds    Correlation
   Product             Stress (m/s)^2   Stress (m/s)^2   Stress (m/s)^2  Coefficient
   ----------------    --------------   --------------   --------------  -----------
   u'w'                    -20.112             0.339            19.335         0.085
   u'v'                    -14.167             0.706            20.934         0.177
   v'w'                    -21.854             0.496            27.946         0.118


   Friction Velocity (Ustar)  =      0.583 m/s
   Maximum Instantaneous TKE  =     31.194 (m/s)^2
   Maximum Instantaneous CTKE =     17.612 (m/s)^2


Grid Point Variance Summary:

   Y-coord -150.00 -141.43 -132.86 -124.29 -115.71 -107.14  -98.57  -90.00  -81.43  -72.86  -64.29  -55.71  -47.14  -38.57  -30.00  -21.43  -12.86   -4.29    4.29   12.86   21.43   30.00   38.57   47.14   55.71   64.29   72.86   81.43   90.00   98.57  107.14  115.71  124.29  132.86  141.43  150.00

   Height   Standard deviation at grid points for the u component:
   301.00    2.164   2.127   2.280   2.394   2.294   2.244   2.281   2.242   2.311   2.486   2.518   2.254   2.335   2.357   2.227   2.077   2.175   2.077   2.096   2.328   2.426   2.146   2.209   2.223   2.246   2.298   2.139   2.224   2.233   2.199   2.213   2.005   2.133   2.194   2.131   1.984
   292.43    2.033   1.943   2.224   2.361   2.208   2.254   2.442   2.331   2.302   2.394   2.274   2.403   2.360   2.325   2.222   2.089   2.024   2.086   2.115   2.230   2.339   2.285   2.328   2.320   2.377   2.221   2.343   2.242   2.242   2.175   2.037   2.013   2.112   2.146   2.148   2.089
   283.86    1.885   2.002   2.063   2.263   2.339   2.514   2.525   2.482   2.486   2.252   2.334   2.299   2.340   2.202   2.033   1.883   1.845   1.978   2.110   2.210   2.266   2.348   2.440   2.368   2.493   2.336   2.172   2.281   2.345   2.268   2.240   2.148   2.051   2.023   2.034   2.103
   275.29    1.977   1.962   2.140   2.144   2.283   2.474   2.552   2.361   2.415   2.443   2.398   2.348   2.300   2.190   2.044   1.838   1.716   1.904   2.068   2.286   2.315   2.492   2.522   2.647   2.652   2.389   2.260   2.312   2.343   2.251   2.199   2.142   2.163   2.185   2.112   2.103
   266.71    2.070   2.152   2.292   2.355   2.357   2.293   2.315   2.275   2.329   2.365   2.297   2.298   2.168   2.209   2.112   1.872   1.837   1.857   2.049   2.143   2.357   2.360   2.466   2.627   2.602   2.505   2.439   2.275   2.194   2.238   2.073   2.163   2.130   2.103   2.042   1.877
   258.14    2.179   2.208   2.245   2.279   2.304   2.215   2.152   2.166   2.244   2.266   2.271   2.184   2.158   2.213   2.071   1.861   1.865   1.821   1.963   2.140   2.220   2.354   2.400   2.576   2.550   2.429   2.226   2.233   2.164   2.289   2.397   2.265   2.111   2.117   1.928   1.854
   249.57    2.030   2.327   2.223   2.243   2.205   2.225   2.272   2.237   2.213   2.143   2.138   2.125   2.049   2.084   1.956   1.919   2.037   2.016   1.948   1.956   2.128   2.294   2.415   2.526   2.398   2.303   2.206   2.250   2.173   2.255   2.222   2.174   2.155   2.048   2.057   2.035
   241.00    2.158   2.190   2.163   2.297   2.277   2.135   2.148   2.176   2.106   2.182   2.205   2.004   2.090   2.079   1.886   2.016   2.172   2.104   2.123   2.154   2.124   2.224   2.257   2.335   2.307   2.326   2.274   2.255   2.109   2.165   2.135   2.117   2.026   1.995   2.083   2.051
   232.43    2.051   2.113   2.117   2.222   2.205   2.263   2.241   2.174   2.040   2.204   2.108   2.042   2.174   2.034   1.884   1.989   1.995   1.934   2.045   2.119   2.118   2.205   2.177   2.193   2.184   2.329   2.214   2.151   2.119   2.042   2.097   2.057   1.869   1.827   2.020   1.918
   223.86    2.072   1.973   2.128   2.087   2.076   2.260   2.301   2.201   2.039   2.102   2.066   2.052   2.056   2.088   1.970   2.021   1.933   2.036   2.071   2.071   2.214   2.223   2.139   2.256   2.366   2.211   2.153   2.071   2.188   2.100   2.049   1.995   1.877   1.951   1.957   2.030
   215.29    1.974   2.051   2.106   2.021   1.976   2.035   2.162   2.135   2.111   1.993   1.849   1.999   2.230   2.134   1.928   1.864   2.009   2.011   1.930   1.993   2.045   2.087   2.237   2.408   2.384   2.305   2.207   1.981   2.012   2.133   2.131   1.982   1.961   1.917   2.093   1.911
   206.71    1.906   2.018   2.010   2.118   1.964   2.094   2.042   2.228   2.172   2.058   2.018   2.168   2.271   2.114   1.880   1.831   1.824   1.880   1.888   1.840   2.041   2.053   2.246   2.210   2.205   2.018   2.022   1.986   1.844   1.984   1.977   2.049   1.933   1.825   1.845   1.836
   198.14    2.002   1.978   1.939   2.125   2.130   2.136   2.261   2.294   2.160   2.252   2.137   2.167   2.033   2.067   1.980   2.076   1.910   1.832   1.903   1.889   1.992   2.112   2.157   2.102   2.068   2.043   2.085   1.924   1.862   1.856   1.989   2.009   2.023   1.847   1.833   1.904
   189.57    2.074   2.061   2.058   1.883   2.061   2.310   2.210   2.258   2.139   2.317   2.163   2.015   2.022   1.893   2.055   2.104   1.956   1.861   1.927   1.892   1.926   2.050   1.941   2.064   2.012   2.073   2.057   2.061   1.918   1.861   2.000   1.987   2.032   1.947   1.958   1.949
   181.00    2.091   2.036   1.914   1.855   2.157   2.138   2.147   2.112   2.319   2.318   2.246   2.198   2.117   2.026   2.113   2.147   1.951   1.811   1.869   1.923   1.969   2.031   2.061   2.155   2.200   2.066   2.029   2.177   2.049   2.099   1.949   2.104   2.083   2.136   2.059   1.982
   172.43    1.988   1.935   1.857   1.892   2.084   2.098   2.187   2.180   2.363   2.377   2.223   2.276   2.127   2.198   2.068   2.163   1.984   1.926   2.029   1.936   1.870   2.045   2.047   2.162   2.264   2.106   2.173   2.046   2.099   2.093   1.965   2.015   2.022   2.071   1.932   1.966
   163.86    1.833   1.933   1.960   2.070   2.071   2.035   2.189   2.184   2.162   2.157   2.139   2.218   2.159   2.142   2.094   2.141   2.038   1.892   1.970   1.926   1.859   2.063   2.097   2.171   2.251   2.022   2.115   2.142   2.238   2.057   2.056   1.942   2.052   2.038   2.053   2.006
   155.29    1.824   1.746   1.856   1.902   2.175   2.129   2.277   2.108   2.006   2.120   2.026   2.163   2.189   2.291   2.219   2.179   2.171   2.058   1.904   1.908   1.997   2.131   2.280   2.218   2.215   2.104   2.124   2.179   2.122   1.992   2.057   2.112   2.012   2.054   2.170   2.020
   146.71    1.985   1.918   1.871   2.031   2.159   2.234   2.309   2.243   2.045   2.101   2.144   2.214   2.228   2.156   2.152   2.143   2.113   2.033   1.831   1.945   1.965   2.066   2.282   2.186   2.302   2.230   2.289   2.152   2.156   2.024   2.036   2.105   2.232   2.183   2.193   2.038
   138.14    1.981   2.106   1.958   1.892   2.124   2.242   2.300   2.120   2.135   2.229   2.202   2.140   2.075   2.163   2.098   2.029   1.999   1.921   1.940   1.882   1.988   2.174   2.267   2.381   2.459   2.439   2.447   2.318   2.158   2.164   2.230   2.119   2.285   2.399   2.316   2.114
   129.57    2.073   2.101   1.970   1.948   2.138   2.192   2.248   2.234   2.152   2.151   2.059   2.187   2.053   2.036   2.086   1.992   2.071   2.017   1.969   2.024   2.004   2.141   2.299   2.437   2.472   2.405   2.501   2.568   2.332   2.357   2.324   2.203   2.338   2.348   2.173   2.051
   121.00    1.852   2.021   2.014   2.027   2.205   2.135   2.207   2.204   2.131   1.945   2.071   2.169   2.231   2.023   2.121   2.036   2.062   1.974   1.914   1.966   1.926   2.205   2.208   2.280   2.424   2.353   2.523   2.395   2.354   2.290   2.229   2.174   2.313   2.273   2.129   2.034
   112.43    1.950   1.872   1.987   2.101   2.233   2.252   2.171   2.095   2.043   1.905   2.002   2.076   2.150   2.015   2.185   2.143   1.993   1.968   2.017   1.993   2.077   2.061   2.197   2.224   2.284   2.294   2.412   2.465   2.304   2.214   2.226   2.224   2.095   2.095   2.058   2.071
   103.86    2.006   2.055   2.098   2.287   2.175   2.089   2.031   2.084   1.973   2.069   2.058   2.103   1.999   2.077   2.091   2.058   2.114   1.973   2.039   2.150   2.063   2.146   2.164   2.110   2.147   2.212   2.285   2.213   2.168   2.354   2.333   2.155   2.005   2.152   2.034   2.225
    95.29    1.872   1.790   1.971   2.080   2.017   1.959   1.946   1.933   2.027   2.149   2.100   2.136   2.011   2.040   2.211   1.924   2.022   2.122   2.022   2.083   2.138   2.086   2.125   2.167   2.182   2.186   2.224   2.155   2.261   2.174   2.315   2.252   2.240   2.257   2.218   2.309
    86.71    1.767   1.700   1.849   1.842   1.978   1.995   1.905   1.862   1.977   1.986   2.009   2.113   1.982   2.059   1.987   2.114   2.051   2.066   2.072   2.053   2.127   2.117   2.103   2.146   2.074   2.159   2.146   2.140   2.163   2.308   2.190   2.199   2.129   2.301   2.143   2.134
    78.14    1.864   1.826   1.771   1.691   1.772   1.814   1.819   1.793   2.018   2.092   2.138   2.063   2.022   2.022   1.923   2.143   2.169   2.081   2.159   2.090   2.135   2.179   2.116   2.182   2.190   2.164   2.107   2.037   2.122   2.255   2.155   2.149   2.239   2.328   2.086   2.045
    69.57    1.867   1.894   1.766   1.675   1.609   1.681   1.681   1.781   1.874   1.929   2.101   2.133   2.109   2.047   1.950   2.013   2.168   2.211   2.274   2.154   2.142   2.097   2.099   2.106   2.057   2.081   2.085   2.054   1.979   2.109   2.142   2.180   2.242   2.121   2.064   1.922
    61.00    1.725   1.768   1.840   1.757   1.570   1.577   1.746   1.874   1.986   2.023   2.190   2.306   2.085   2.039   2.032   1.966   2.137   2.218   2.332   2.178   2.201   1.877   2.014   2.059   1.919   2.050   1.989   2.042   2.048   2.142   2.275   2.234   2.262   2.229   1.893   1.852
    52.43    1.924   1.815   1.781   1.639   1.647   1.786   2.015   2.007   2.018   2.059   2.145   2.349   2.253   2.167   2.194   2.138   2.149   2.220   2.173   2.119   2.014   1.875   1.945   1.989   2.087   2.122   2.050   2.149   2.011   2.158   2.140   2.166   2.319   2.170   1.960   1.841
    43.86    1.920   1.841   1.698   1.610   1.765   1.855   2.027   2.057   2.074   1.925   2.094   2.278   2.322   2.140   1.980   2.105   2.181   2.257   2.036   2.039   1.875   1.753   1.840   1.926   1.966   2.150   2.145   2.213   2.066   1.943   1.991   2.116   2.249   1.954   1.929   1.837
    35.29    1.934   1.844   1.870   1.768   1.808   1.909   1.891   2.098   2.120   1.989   1.972   2.071   2.132   2.144   2.169   2.167   1.999   2.120   1.935   1.895   1.763   1.863   1.764   1.890   2.059   2.044   2.037   2.012   2.092   2.014   2.049   2.104   2.254   1.939   2.041   1.925
    26.71    1.934   1.857   2.071   2.056   1.933   1.879   1.915   1.967   2.060   1.921   2.024   1.962   2.107   2.123   2.148   2.104   1.976   2.081   2.039   1.893   1.706   1.735   1.872   1.908   1.928   1.918   2.087   1.925   2.039   2.041   2.189   2.208   2.169   2.096   2.080   1.829
    18.14    2.089   2.104   2.016   2.138   2.072   2.034   1.953   1.989   1.933   1.933   1.948   1.997   2.093   2.157   2.088   1.955   1.920   1.991   1.894   1.783   1.966   1.794   1.915   1.806   1.984   1.940   2.066   2.150   2.109   2.135   2.127   2.235   2.253   2.140   2.090   1.971
     9.57    2.168   2.181   1.904   2.162   2.277   2.244   2.004   2.135   2.121   2.038   1.944   2.165   2.023   2.200   2.166   1.912   1.833   1.821   1.865   1.891   1.880   1.949   1.880   1.962   1.900   2.023   2.163   1.991   2.239   2.170   2.164   2.138   2.215   2.014   2.017   1.944
     1.00    2.033   2.121   2.021   2.075   2.095   2.124   2.174   2.140   2.144   2.041   2.247   2.186   2.210   2.133   2.097   1.861   1.840   1.759   1.867   1.949   2.017   1.894   1.891   1.996   1.953   2.017   2.166   2.042   2.205   2.057   2.235   2.124   2.248   1.995   1.987   2.026

   Height   Standard deviation at grid points for the v component:
   301.00    2.052   2.052   2.052   2.052   2.052   2.052   2.052   2.052   2.052   2.052   2.052   2.052   2.052   2.052   2.052   2.052   2.052   2.052   2.052   2.052   2.052   2.052   2.052   2.052   2.052   2.052   2.052   2.052   2.052   2.052   2.052   2.052   2.052   2.052   2.052   2.052
   292.43    2.052   2.052   2.052   2.052   2.052   2.052   2.052   2.052   2.052   2.052   2.052   2.052   2.052   2.052   2.052   2.052   2.052   2.052   2.052   2.052   2.052   2.052   2.052   2.052   2.052   2.052   2.052   2.052   2.052   2.052   2.052   2.052   2.052   2.052   2.052   2.052
   283.86    2.052   2.052   2.052   2.052   2.052   2.052   2.052   2.052   2.052   2.052   2.052   2.052   2.052   2.052   2.052   2.052   2.052   2.052   2.052   2.052   2.052   2.052   2.052   2.052   2.052   2.052   2.052   2.052   2.052   2.052   2.052   2.052   2.052   2.052   2.052   2.052
   275.29    2.052   2.052   2.052   2.052   2.052   2.052   2.052   2.052   2.052   2.052   2.052   2.052   2.052   2.052   2.052   2.052   2.052   2.052   2.052   2.052   2.052   2.052   2.052   2.052   2.052   2.052   2.052   2.052   2.052   2.052   2.052   2.052   2.052   2.052   2.052   2.052
   266.71    2.052   2.052   2.052   2.052   2.052   2.052   2.052   2.052   2.052   2.052   2.052   2.052   2.052   2.052   2.052   2.052   2.052   2.052   2.052   2.052   2.052   2.052   2.052   2.052   2.052   2.052   2.052   2.052   2.052   2.052   2.052   2.052   2.052   2.052   2.052   2.052
   258.14    2.052   2.052   2.052   2.052   2.052   2.052   2.052   2.052   2.052   2.052   2.052   2.052   2.052   2.052   2.052   2.052   2.052   2.052   2.052   2.052   2.052   2.052   2.052   2.052   2.052   2.052   2.052   2.052   2.052   2.052   2.052   2.052   2.052   2.052   2.052   2.052
   249.57    2.052   2.052   2.052   2.052   2.052   2.052   2.052   2.052   2.052   2.052   2.052   2.052   2.052   2.052   2.052   2.052   2.052   2.052   2.052   2.052   2.052   2.052   2.052   2.052   2.052   2.052   2.052   2.052   2.052   2.052   2.052   2.052   2.052   2.052   2.052   2.052
   241.00    2.052   2.052   2.052   2.052   2.052   2.052   2.052   2.052   2.052   2.052   2.052   2.052   2.052   2.052   2.052   2.052   2.052   2.052   2.052   2.052   2.052   2.052   2.052   2.052   2.052   2.052   2.052   2.052   2.052   2.052   2.052   2.052   2.052   2.052   2.052   2.052
   232.43    2.052   2.052   2.052   2.052   2.052   2.052   2.052   2.052   2.052   2.052   2.052   2.052   2.052   2.052   2.052   2.052   2.052   2.052   2.052   2.052   2.052   2.052   2.052   2.052   2.052   2.052   2.052   2.052   2.052   2.052   2.052   2.052   2.052   2.052   2.052   2.052
   223.86    2.052   2.052   2.052   2.052   2.052   2.052   2.052   2.052   2.052   2.052   2.052   2.052   2.052   2.052   2.052   2.052   2.052   2.052   2.052   2.052   2.052   2.052   2.052   2.052   2.052   2.052   2.052   2.052   2.052   2.052   2.052   2.052   2.052   2.052   2.052   2.052
   215.29    2.052   2.052   2.052   2.052   2.052   2.052   2.052   2.052   2.052   2.052   2.052   2.052   2.052   2.052   2.052   2.052   2.052   2.052   2.052   2.052   2.052   2.052   2.052   2.052   2.052   2.052   2.052   2.052   2.052   2.052   2.052   2.052   2.052   2.052   2.052   2.052
   206.71    2.052   2.052   2.052   2.052   2.052   2.052   2.052   2.052   2.052   2.052   2.052   2.052   2.052   2.052   2.052   2.052   2.052   2.052   2.052   2.052   2.052   2.052   2.052   2.052   2.052   2.052   2.052   2.052   2.052   2.052   2.052   2.052   2.052   2.052   2.052   2.052
   198.14    2.052   2.052   2.052   2.052   2.052   2.052   2.052   2.052   2.052   2.052   2.052   2.052   2.052   2.052   2.052   2.052   2.052   2.052   2.052   2.052   2.052   2.052   2.052   2.052   2.052   2.052   2.052   2.052   2.052   2.052   2.052   2.052   2.052   2.052   2.052   2.052
   189.57    2.052   2.052   2.052   2.052   2.052   2.052   2.052   2.052   2.052   2.052   2.052   2.052   2.052   2.052   2.052   2.052   2.052   2.052   2.052   2.052   2.052   2.052   2.052   2.052   2.052   2.052   2.052   2.052   2.052   2.052   2.052   2.052   2.052   2.052   2.052   2.052
   181.00    2.052   2.052   2.052   2.052   2.052   2.052   2.052   2.052   2.052   2.052   2.052   2.052   2.052   2.052   2.052   2.052   2.052   2.052   2.052   2.052   2.052   2.052   2.052   2.052   2.052   2.052   2.052   2.052   2.052   2.052   2.052   2.052   2.052   2.052   2.052   2.052
   172.43    2.052   2.052   2.052   2.052   2.052   2.052   2.052   2.052   2.052   2.052   2.052   2.052   2.052   2.052   2.052   2.052   2.052   2.052   2.052   2.052   2.052   2.052   2.052   2.052   2.052   2.052   2.052   2.052   2.052   2.052   2.052   2.052   2.052   2.052   2.052   2.052
   163.86    2.052   2.052   2.052   2.052   2.052   2.052   2.052   2.052   2.052   2.052   2.052   2.052   2.052   2.052   2.052   2.052   2.052   2.052   2.052   2.052   2.052   2.052   2.052   2.052   2.052   2.052   2.052   2.052   2.052   2.052   2.052   2.052   2.052   2.052   2.052   2.052
   155.29    2.052   2.052   2.052   2.052   2.052   2.052   2.052   2.052   2.052   2.052   2.052   2.052   2.052   2.052   2.052   2.052   2.052   2.052   2.052   2.052   2.052   2.052   2.052   2.052   2.052   2.052   2.052   2.052   2.052   2.052   2.052   2.052   2.052   2.052   2.052   2.052
   146.71    2.052   2.052   2.052   2.052   2.052   2.052   2.052   2.052   2.052   2.052   2.052   2.052   2.052   2.052   2.052   2.052   2.052   2.052   2.052   2.052   2.052   2.052   2.052   2.052   2.052   2.052   2.052   2.052   2.052   2.052   2.052   2.052   2.052   2.052   2.052   2.052
   138.14    2.052   2.052   2.052   2.052   2.052   2.052   2.052   2.052   2.052   2.052   2.052   2.052   2.052   2.052   2.052   2.052   2.052   2.052   2.052   2.052   2.052   2.052   2.052   2.052   2.052   2.052   2.052   2.052   2.052   2.052   2.052   2.052   2.052   2.052   2.052   2.052
   129.57    2.052   2.052   2.052   2.052   2.052   2.052   2.052   2.052   2.052   2.052   2.052   2.052   2.052   2.052   2.052   2.052   2.052   2.052   2.052   2.052   2.052   2.052   2.052   2.052   2.052   2.052   2.052   2.052   2.052   2.052   2.052   2.052   2.052   2.052   2.052   2.052
   121.00    2.052   2.052   2.052   2.052   2.052   2.052   2.052   2.052   2.052   2.052   2.052   2.052   2.052   2.052   2.052   2.052   2.052   2.052   2.052   2.052   2.052   2.052   2.052   2.052   2.052   2.052   2.052   2.052   2.052   2.052   2.052   2.052   2.052   2.052   2.052   2.052
   112.43    2.052   2.052   2.052   2.052   2.052   2.052   2.052   2.052   2.052   2.052   2.052   2.052   2.052   2.052   2.052   2.052   2.052   2.052   2.052   2.052   2.052   2.052   2.052   2.052   2.052   2.052   2.052   2.052   2.052   2.052   2.052   2.052   2.052   2.052   2.052   2.052
   103.86    2.052   2.052   2.052   2.052   2.052   2.052   2.052   2.052   2.052   2.052   2.052   2.052   2.052   2.052   2.052   2.052   2.052   2.052   2.052   2.052   2.052   2.052   2.052   2.052   2.052   2.052   2.052   2.052   2.052   2.052   2.052   2.052   2.052   2.052   2.052   2.052
    95.29    2.052   2.052   2.052   2.052   2.052   2.052   2.052   2.052   2.052   2.052   2.052   2.052   2.052   2.052   2.052   2.052   2.052   2.052   2.052   2.052   2.052   2.052   2.052   2.052   2.052   2.052   2.052   2.052   2.052   2.052   2.052   2.052   2.052   2.052   2.052   2.052
    86.71    2.052   2.052   2.052   2.052   2.052   2.052   2.052   2.052   2.052   2.052   2.052   2.052   2.052   2.052   2.052   2.052   2.052   2.052   2.052   2.052   2.052   2.052   2.052   2.052   2.052   2.052   2.052   2.052   2.052   2.052   2.052   2.052   2.052   2.052   2.052   2.052
    78.14    2.052   2.052   2.052   2.052   2.052   2.052   2.052   2.052   2.052   2.052   2.052   2.052   2.052   2.052   2.052   2.052   2.052   2.052   2.052   2.052   2.052   2.052   2.052   2.052   2.052   2.052   2.052   2.052   2.052   2.052   2.052   2.052   2.052   2.052   2.052   2.052
    69.57    2.052   2.052   2.052   2.052   2.052   2.052   2.052   2.052   2.052   2.052   2.052   2.052   2.052   2.052   2.052   2.052   2.052   2.052   2.052   2.052   2.052   2.052   2.052   2.052   2.052   2.052   2.052   2.052   2.052   2.052   2.052   2.052   2.052   2.052   2.052   2.052
    61.00    2.052   2.052   2.052   2.052   2.052   2.052   2.052   2.052   2.052   2.052   2.052   2.052   2.052   2.052   2.052   2.052   2.052   2.052   2.052   2.052   2.052   2.052   2.052   2.052   2.052   2.052   2.052   2.052   2.052   2.052   2.052   2.052   2.052   2.052   2.052   2.052
    52.43    2.052   2.052   2.052   2.052   2.052   2.052   2.052   2.052   2.052   2.052   2.052   2.052   2.052   2.052   2.052   2.052   2.052   2.052   2.052   2.052   2.052   2.052   2.052   2.052   2.052   2.052   2.052   2.052   2.052   2.052   2.052   2.052   2.052   2.052   2.052   2.052
    43.86    2.052   2.052   2.052   2.052   2.052   2.052   2.052   2.052   2.052   2.052   2.052   2.052   2.052   2.052   2.052   2.052   2.052   2.052   2.052   2.052   2.052   2.052   2.052   2.052   2.052   2.052   2.052   2.052   2.052   2.052   2.052   2.052   2.052   2.052   2.052   2.052
    35.29    2.052   2.052   2.052   2.052   2.052   2.052   2.052   2.052   2.052   2.052   2.052   2.052   2.052   2.052   2.052   2.052   2.052   2.052   2.052   2.052   2.052   2.052   2.052   2.052   2.052   2.052   2.052   2.052   2.052   2.052   2.052   2.052   2.052   2.052   2.052   2.052
    26.71    2.052   2.052   2.052   2.052   2.052   2.052   2.052   2.052   2.052   2.052   2.052   2.052   2.052   2.052   2.052   2.052   2.052   2.052   2.052   2.052   2.052   2.052   2.052   2.052   2.052   2.052   2.052   2.052   2.052   2.052   2.052   2.052   2.052   2.052   2.052   2.052
    18.14    2.052   2.052   2.052   2.052   2.052   2.052   2.052   2.052   2.052   2.052   2.052   2.052   2.052   2.052   2.052   2.052   2.052   2.052   2.052   2.052   2.052   2.052   2.052   2.052   2.052   2.052   2.052   2.052   2.052   2.052   2.052   2.052   2.052   2.052   2.052   2.052
     9.57    2.052   2.052   2.052   2.052   2.052   2.052   2.052   2.052   2.052   2.052   2.052   2.052   2.052   2.052   2.052   2.052   2.052   2.052   2.052   2.052   2.052   2.052   2.052   2.052   2.052   2.052   2.052   2.052   2.052   2.052   2.052   2.052   2.052   2.052   2.052   2.052
     1.00    2.052   2.052   2.052   2.052   2.052   2.052   2.052   2.052   2.052   2.052   2.052   2.052   2.052   2.052   2.052   2.052   2.052   2.052   2.052   2.052   2.052   2.052   2.052   2.052   2.052   2.052   2.052   2.052   2.052   2.052   2.052   2.052   2.052   2.052   2.052   2.052

   Height   Standard deviation at grid points for the w component:
   301.00    2.052   2.052   2.052   2.052   2.052   2.052   2.052   2.052   2.052   2.052   2.052   2.052   2.052   2.052   2.052   2.052   2.052   2.052   2.052   2.052   2.052   2.052   2.052   2.052   2.052   2.052   2.052   2.052   2.052   2.052   2.052   2.052   2.052   2.052   2.052   2.052
   292.43    2.052   2.052   2.052   2.052   2.052   2.052   2.052   2.052   2.052   2.052   2.052   2.052   2.052   2.052   2.052   2.052   2.052   2.052   2.052   2.052   2.052   2.052   2.052   2.052   2.052   2.052   2.052   2.052   2.052   2.052   2.052   2.052   2.052   2.052   2.052   2.052
   283.86    2.052   2.052   2.052   2.052   2.052   2.052   2.052   2.052   2.052   2.052   2.052   2.052   2.052   2.052   2.052   2.052   2.052   2.052   2.052   2.052   2.052   2.052   2.052   2.052   2.052   2.052   2.052   2.052   2.052   2.052   2.052   2.052   2.052   2.052   2.052   2.052
   275.29    2.052   2.052   2.052   2.052   2.052   2.052   2.052   2.052   2.052   2.052   2.052   2.052   2.052   2.052   2.052   2.052   2.052   2.052   2.052   2.052   2.052   2.052   2.052   2.052   2.052   2.052   2.052   2.052   2.052   2.052   2.052   2.052   2.052   2.052   2.052   2.052
   266.71    2.052   2.052   2.052   2.052   2.052   2.052   2.052   2.052   2.052   2.052   2.052   2.052   2.052   2.052   2.052   2.052   2.052   2.052   2.052   2.052   2.052   2.052   2.052   2.052   2.052   2.052   2.052   2.052   2.052   2.052   2.052   2.052   2.052   2.052   2.052   2.052
   258.14    2.052   2.052   2.052   2.052   2.052   2.052   2.052   2.052   2.052   2.052   2.052   2.052   2.052   2.052   2.052   2.052   2.052   2.052   2.052   2.052   2.052   2.052   2.052   2.052   2.052   2.052   2.052   2.052   2.052   2.052   2.052   2.052   2.052   2.052   2.052   2.052
   249.57    2.052   2.052   2.052   2.052   2.052   2.052   2.052   2.052   2.052   2.052   2.052   2.052   2.052   2.052   2.052   2.052   2.052   2.052   2.052   2.052   2.052   2.052   2.052   2.052   2.052   2.052   2.052   2.052   2.052   2.052   2.052   2.052   2.052   2.052   2.052   2.052
   241.00    2.052   2.052   2.052   2.052   2.052   2.052   2.052   2.052   2.052   2.052   2.052   2.052   2.052   2.052   2.052   2.052   2.052   2.052   2.052   2.052   2.052   2.052   2.052   2.052   2.052   2.052   2.052   2.052   2.052   2.052   2.052   2.052   2.052   2.052   2.052   2.052
   232.43    2.052   2.052   2.052   2.052   2.052   2.052   2.052   2.052   2.052   2.052   2.052   2.052   2.052   2.052   2.052   2.052   2.052   2.052   2.052   2.052   2.052   2.052   2.052   2.052   2.052   2.052   2.052   2.052   2.052   2.052   2.052   2.052   2.052   2.052   2.052   2.052
   223.86    2.052   2.052   2.052   2.052   2.052   2.052   2.052   2.052   2.052   2.052   2.052   2.052   2.052   2.052   2.052   2.052   2.052   2.052   2.052   2.052   2.052   2.052   2.052   2.052   2.052   2.052   2.052   2.052   2.052   2.052   2.052   2.052   2.052   2.052   2.052   2.052
   215.29    2.052   2.052   2.052   2.052   2.052   2.052   2.052   2.052   2.052   2.052   2.052   2.052   2.052   2.052   2.052   2.052   2.052   2.052   2.052   2.052   2.052   2.052   2.052   2.052   2.052   2.052   2.052   2.052   2.052   2.052   2.052   2.052   2.052   2.052   2.052   2.052
   206.71    2.052   2.052   2.052   2.052   2.052   2.052   2.052   2.052   2.052   2.052   2.052   2.052   2.052   2.052   2.052   2.052   2.052   2.052   2.052   2.052   2.052   2.052   2.052   2.052   2.052   2.052   2.052   2.052   2.052   2.052   2.052   2.052   2.052   2.052   2.052   2.052
   198.14    2.052   2.052   2.052   2.052   2.052   2.052   2.052   2.052   2.052   2.052   2.052   2.052   2.052   2.052   2.052   2.052   2.052   2.052   2.052   2.052   2.052   2.052   2.052   2.052   2.052   2.052   2.052   2.052   2.052   2.052   2.052   2.052   2.052   2.052   2.052   2.052
   189.57    2.052   2.052   2.052   2.052   2.052   2.052   2.052   2.052   2.052   2.052   2.052   2.052   2.052   2.052   2.052   2.052   2.052   2.052   2.052   2.052   2.052   2.052   2.052   2.052   2.052   2.052   2.052   2.052   2.052   2.052   2.052   2.052   2.052   2.052   2.052   2.052
   181.00    2.052   2.052   2.052   2.052   2.052   2.052   2.052   2.052   2.052   2.052   2.052   2.052   2.052   2.052   2.052   2.052   2.052   2.052   2.052   2.052   2.052   2.052   2.052   2.052   2.052   2.052   2.052   2.052   2.052   2.052   2.052   2.052   2.052   2.052   2.052   2.052
   172.43    2.052   2.052   2.052   2.052   2.052   2.052   2.052   2.052   2.052   2.052   2.052   2.052   2.052   2.052   2.052   2.052   2.052   2.052   2.052   2.052   2.052   2.052   2.052   2.052   2.052   2.052   2.052   2.052   2.052   2.052   2.052   2.052   2.052   2.052   2.052   2.052
   163.86    2.052   2.052   2.052   2.052   2.052   2.052   2.052   2.052   2.052   2.052   2.052   2.052   2.052   2.052   2.052   2.052   2.052   2.052   2.052   2.052   2.052   2.052   2.052   2.052   2.052   2.052   2.052   2.052   2.052   2.052   2.052   2.052   2.052   2.052   2.052   2.052
   155.29    2.052   2.052   2.052   2.052   2.052   2.052   2.052   2.052   2.052   2.052   2.052   2.052   2.052   2.052   2.052   2.052   2.052   2.052   2.052   2.052   2.052   2.052   2.052   2.052   2.052   2.052   2.052   2.052   2.052   2.052   2.052   2.052   2.052   2.052   2.052   2.052
   146.71    2.052   2.052   2.052   2.052   2.052   2.052   2.052   2.052   2.052   2.052   2.052   2.052   2.052   2.052   2.052   2.052   2.052   2.052   2.052   2.052   2.052   2.052   2.052   2.052   2.052   2.052   2.052   2.052   2.052   2.052   2.052   2.052   2.052   2.052   2.052   2.052
   138.14    2.052   2.052   2.052   2.052   2.052   2.052   2.052   2.052   2.052   2.052   2.052   2.052   2.052   2.052   2.052   2.052   2.052   2.052   2.052   2.052   2.052   2.052   2.052   2.052   2.052   2.052   2.052   2.052   2.052   2.052   2.052   2.052   2.052   2.052   2.052   2.052
   129.57    2.052   2.052   2.052   2.052   2.052   2.052   2.052   2.052   2.052   2.052   2.052   2.052   2.052   2.052   2.052   2.052   2.052   2.052   2.052   2.052   2.052   2.052   2.052   2.052   2.052   2.052   2.052   2.052   2.052   2.052   2.052   2.052   2.052   2.052   2.052   2.052
   121.00    2.052   2.052   2.052   2.052   2.052   2.052   2.052   2.052   2.052   2.052   2.052   2.052   2.052   2.052   2.052   2.052   2.052   2.052   2.052   2.052   2.052   2.052   2.052   2.052   2.052   2.052   2.052   2.052   2.052   2.052   2.052   2.052   2.052   2.052   2.052   2.052
   112.43    2.052   2.052   2.052   2.052   2.052   2.052   2.052   2.052   2.052   2.052   2.052   2.052   2.052   2.052   2.052   2.052   2.052   2.052   2.052   2.052   2.052   2.052   2.052   2.052   2.052   2.052   2.052   2.052   2.052   2.052   2.052   2.052   2.052   2.052   2.052   2.052
   103.86    2.052   2.052   2.052   2.052   2.052   2.052   2.052   2.052   2.052   2.052   2.052   2.052   2.052   2.052   2.052   2.052   2.052   2.052   2.052   2.052   2.052   2.052   2.052   2.052   2.052   2.052   2.052   2.052   2.052   2.052   2.052   2.052   2.052   2.052   2.052   2.052
    95.29    2.052   2.052   2.052   2.052   2.052   2.052   2.052   2.052   2.052   2.052   2.052   2.052   2.052   2.052   2.052   2.052   2.052   2.052   2.052   2.052   2.052   2.052   2.052   2.052   2.052   2.052   2.052   2.052   2.052   2.052   2.052   2.052   2.052   2.052   2.052   2.052
    86.71    2.052   2.052   2.052   2.052   2.052   2.052   2.052   2.052   2.052   2.052   2.052   2.052   2.052   2.052   2.052   2.052   2.052   2.052   2.052   2.052   2.052   2.052   2.052   2.052   2.052   2.052   2.052   2.052   2.052   2.052   2.052   2.052   2.052   2.052   2.052   2.052
    78.14    2.052   2.052   2.052   2.052   2.052   2.052   2.052   2.052   2.052   2.052   2.052   2.052   2.052   2.052   2.052   2.052   2.052   2.052   2.052   2.052   2.052   2.052   2.052   2.052   2.052   2.052   2.052   2.052   2.052   2.052   2.052   2.052   2.052   2.052   2.052   2.052
    69.57    2.052   2.052   2.052   2.052   2.052   2.052   2.052   2.052   2.052   2.052   2.052   2.052   2.052   2.052   2.052   2.052   2.052   2.052   2.052   2.052   2.052   2.052   2.052   2.052   2.052   2.052   2.052   2.052   2.052   2.052   2.052   2.052   2.052   2.052   2.052   2.052
    61.00    2.052   2.052   2.052   2.052   2.052   2.052   2.052   2.052   2.052   2.052   2.052   2.052   2.052   2.052   2.052   2.052   2.052   2.052   2.052   2.052   2.052   2.052   2.052   2.052   2.052   2.052   2.052   2.052   2.052   2.052   2.052   2.052   2.052   2.052   2.052   2.052
    52.43    2.052   2.052   2.052   2.052   2.052   2.052   2.052   2.052   2.052   2.052   2.052   2.052   2.052   2.052   2.052   2.052   2.052   2.052   2.052   2.052   2.052   2.052   2.052   2.052   2.052   2.052   2.052   2.052   2.052   2.052   2.052   2.052   2.052   2.052   2.052   2.052
    43.86    2.052   2.052   2.052   2.052   2.052   2.052   2.052   2.052   2.052   2.052   2.052   2.052   2.052   2.052   2.052   2.052   2.052   2.052   2.052   2.052   2.052   2.052   2.052   2.052   2.052   2.052   2.052   2.052   2.052   2.052   2.052   2.052   2.052   2.052   2.052   2.052
    35.29    2.052   2.052   2.052   2.052   2.052   2.052   2.052   2.052   2.052   2.052   2.052   2.052   2.052   2.052   2.052   2.052   2.052   2.052   2.052   2.052   2.052   2.052   2.052   2.052   2.052   2.052   2.052   2.052   2.052   2.052   2.052   2.052   2.052   2.052   2.052   2.052
    26.71    2.052   2.052   2.052   2.052   2.052   2.052   2.052   2.052   2.052   2.052   2.052   2.052   2.052   2.052   2.052   2.052   2.052   2.052   2.052   2.052   2.052   2.052   2.052   2.052   2.052   2.052   2.052   2.052   2.052   2.052   2.052   2.052   2.052   2.052   2.052   2.052
    18.14    2.052   2.052   2.052   2.052   2.052   2.052   2.052   2.052   2.052   2.052   2.052   2.052   2.052   2.052   2.052   2.052   2.052   2.052   2.052   2.052   2.052   2.052   2.052   2.052   2.052   2.052   2.052   2.052   2.052   2.052   2.052   2.052   2.052   2.052   2.052   2.052
     9.57    2.052   2.052   2.052   2.052   2.052   2.052   2.052   2.052   2.052   2.052   2.052   2.052   2.052   2.052   2.052   2.052   2.052   2.052   2.052   2.052   2.052   2.052   2.052   2.052   2.052   2.052   2.052   2.052   2.052   2.052   2.052   2.052   2.052   2.052   2.052   2.052
     1.00    2.052   2.052   2.052   2.052   2.052   2.052   2.052   2.052   2.052   2.052   2.052   2.052   2.052   2.052   2.052   2.052   2.052   2.052   2.052   2.052   2.052   2.052   2.052   2.052   2.052   2.052   2.052   2.052   2.052   2.052   2.052   2.052   2.052   2.052   2.052   2.052

   Mean standard deviation across all grid points:
      u component:    2.098 m/s
      v component:    2.052 m/s
      w component:    2.052 m/s


U-component (X) statistics from the interpolated hub point:

   Mean =   9.9731 m/s
   TI   =  17.2701 %


Normalizing Parameters for Binary Data (approximate statistics):

   UBar  =   9.9737 m/s
   TI(u) =  19.5318 %
   TI(v) =  20.5777 %
   TI(w) =  20.5777 %

   Height Offset =   0.0000 m
   Grid Base     =   1.0000 m

Creating a PERIODIC output file.


Processing complete.  5.9844 CPU seconds used.
