
This summary file was generated by TurbSim (v2.00.07a-bjj, 14-Jun-2016) on 03-Nov-2023 at 03:21:07.


Runtime Options:

      3201  Random seed #1
    RANLUX  Type of random number generator
         F  Output binary HH turbulence parameters?
         F  Output formatted turbulence parameters?
         F  Output AeroDyn HH files?
         F  Output AeroDyn FF files?
         T  Output BLADED FF files?
         F  Output tower data?
         F  Output formatted FF files?
         F  Output coherent turbulence time step file?
         T  Clockwise rotation when looking downwind?
 0 -  NONE  IEC turbulence models scaled to exact specified standard deviation


Turbine/Model Specifications:

        36  Vertical grid-point matrix dimension
        36  Horizontal grid-point matrix dimension
     0.100  Time step [seconds]
   660.000  Analysis time [seconds]
   660.000  Usable output time [seconds]
   151.000  Hub height [m]
   300.000  Grid height [m]
   300.000  Grid width [m]
     0.000  Vertical flow angle [degrees]
     0.000  Horizontal flow angle [degrees]


Meteorological Boundary Conditions:

    IECVKM  IEC von Karman spectral model
         1  IEC standard: IEC 61400-1 Ed. 3: 2005
         A  IEC turbulence characteristic
       NTM  IEC Normal Turbulence Model
       N/A  IEC Extreme Turbulence Model (ETM) "c" parameter [m/s]
       PL   Wind profile type
   153.000  Reference height [m]
    15.000  Reference wind speed [m/s]
       N/A  Jet height [m]
     0.200  Power law exponent
     0.030  Surface roughness length [m]


Non-IEC Meteorological Boundary Conditions:

       N/A  Site latitude [degrees]
       N/A  Gradient Richardson number
       N/A  Friction or shear velocity [m/s]
       N/A  Mixing layer depth [m]
       N/A  Mean hub u'w' Reynolds stress
       N/A  Mean hub u'v' Reynolds stress
       N/A  Mean hub v'w' Reynolds stress


Spatial Coherence Models:

       IEC  u-component coherence model
      NONE  v-component coherence model
      NONE  w-component coherence model
(   12.000, 0.353E-03)  u-component coherence parameters
                   N/A  v-component coherence parameters
                   N/A  w-component coherence parameters
       N/A  Coherence exponent


You have requested that the following file(s) be generated:

   G:\2023\OpenWECDV1.0.0_x64\BaseLIne\wind\WindL_V_15_seed_3201.wnd (AeroDyn/BLADED full-field wnd file)


Turbulence Simulation Scaling Parameter Summary:

   Turbulence model used                            =  IEC von Karman
   Turbulence characteristic                        =  A
   IEC turbulence type                              =  Normal Turbulence Model
   IEC standard                                     =  IEC 61400-1 Ed. 3: 2005
   Mean wind speed at hub height                    =   14.961 m/s
   Expected value of turbulence intensity at 15 m/s =   16.000%
   Characteristic value of standard deviation       =    2.691 m/s
   Turbulence scale                                 =   42.000 m
   Isotropic integral scale                         =  147.000 m
   Characteristic value of hub turbulence intensity =   17.989%
   Gradient Richardson number                       =    0.000

   Wind profile type                                =  Power law
   Power law exponent                               =    0.200
   Mean shear across rotor disk                     =    0.039 (m/s)/m
   Assumed rotor diameter                           =  300.000 m
   Surface roughness length                         =    0.030 m

   Nyquist frequency of turbulent wind field        =    5.000 Hz

   Number of time steps in the FFT                  =     6600
   Number of time steps output                      =     6600
   Number of points simulated                       =     1297


Mean Flow Angles:

   Vertical   =   0.0 degrees
   Horizontal =   0.0 degrees

Mean Wind Speed Profile:

   Height    Wind Speed   Horizontal Angle  Vertical Angle  U-comp (X)   V-comp (Y)   W-comp (Z)
     (m)        (m/s)         (degrees)       (degrees)       (m/s)        (m/s)        (m/s)   
   ------    ----------   ----------------  --------------  ----------   ----------   ----------
    301.0       17.17            0.00            0.00         17.17         0.00         0.00
    292.4       17.07            0.00            0.00         17.07         0.00         0.00
    283.9       16.97            0.00            0.00         16.97         0.00         0.00
    275.3       16.87            0.00            0.00         16.87         0.00         0.00
    266.7       16.76            0.00            0.00         16.76         0.00         0.00
    258.1       16.65            0.00            0.00         16.65         0.00         0.00
    249.6       16.54            0.00            0.00         16.54         0.00         0.00
    241.0       16.43            0.00            0.00         16.43         0.00         0.00
    232.4       16.31            0.00            0.00         16.31         0.00         0.00
    223.9       16.19            0.00            0.00         16.19         0.00         0.00
    215.3       16.06            0.00            0.00         16.06         0.00         0.00
    206.7       15.93            0.00            0.00         15.93         0.00         0.00
    198.1       15.80            0.00            0.00         15.80         0.00         0.00
    189.6       15.66            0.00            0.00         15.66         0.00         0.00
    181.0       15.51            0.00            0.00         15.51         0.00         0.00
    172.4       15.36            0.00            0.00         15.36         0.00         0.00
    163.9       15.21            0.00            0.00         15.21         0.00         0.00
    155.3       15.04            0.00            0.00         15.04         0.00         0.00
    151.0       14.96            0.00            0.00         14.96         0.00         0.00
    146.7       14.87            0.00            0.00         14.87         0.00         0.00
    138.1       14.70            0.00            0.00         14.70         0.00         0.00
    129.6       14.51            0.00            0.00         14.51         0.00         0.00
    121.0       14.31            0.00            0.00         14.31         0.00         0.00
    112.4       14.10            0.00            0.00         14.10         0.00         0.00
    103.9       13.88            0.00            0.00         13.88         0.00         0.00
     95.3       13.64            0.00            0.00         13.64         0.00         0.00
     86.7       13.39            0.00            0.00         13.39         0.00         0.00
     78.1       13.11            0.00            0.00         13.11         0.00         0.00
     69.6       12.81            0.00            0.00         12.81         0.00         0.00
     61.0       12.48            0.00            0.00         12.48         0.00         0.00
     52.4       12.11            0.00            0.00         12.11         0.00         0.00
     43.9       11.68            0.00            0.00         11.68         0.00         0.00
     35.3       11.19            0.00            0.00         11.19         0.00         0.00
     26.7       10.58            0.00            0.00         10.58         0.00         0.00
     18.1        9.79            0.00            0.00          9.79         0.00         0.00
      9.6        8.62            0.00            0.00          8.62         0.00         0.00
      1.0        5.48            0.00            0.00          5.48         0.00         0.00


Harvested Random Seeds after Generation of the Random Numbers:

    119307688 K 1
            0 K 2


Hub-Height Simulated Turbulence Statistical Summary:

   Type of Wind        Min (m/s)   Mean (m/s)    Max (m/s)  Sigma (m/s)       TI (%)
   ----------------    ---------   ----------    ---------  -----------       ------
   Longitudinal (u)         8.25        14.96        21.65        2.420       16.176
   Lateral (v)            -10.23         0.00         8.79        2.644       17.672
   Vertical (w)            -8.40        -0.00        10.15        2.644       17.672
   U component              8.25        14.96        21.65        2.420       16.176
   V component            -10.23         0.00         8.79        2.644       17.672
   W component             -8.40        -0.00        10.15        2.644       17.672
   Horizontal (U&V)         8.65        15.19        22.02        2.407       15.840
   Total                    8.75        15.43        22.15        2.387       15.476

                       Min Reynolds     Mean Reynolds    Max Reynolds    Correlation
   Product             Stress (m/s)^2   Stress (m/s)^2   Stress (m/s)^2  Coefficient
   ----------------    --------------   --------------   --------------  -----------
   u'w'                    -46.494             0.261            31.352         0.041
   u'v'                    -44.223            -0.913            33.779        -0.143
   v'w'                    -52.637             0.732            72.885         0.105


   Friction Velocity (Ustar)  =      0.511 m/s
   Maximum Instantaneous TKE  =     73.351 (m/s)^2
   Maximum Instantaneous CTKE =     36.901 (m/s)^2


Grid Point Variance Summary:

   Y-coord -150.00 -141.43 -132.86 -124.29 -115.71 -107.14  -98.57  -90.00  -81.43  -72.86  -64.29  -55.71  -47.14  -38.57  -30.00  -21.43  -12.86   -4.29    4.29   12.86   21.43   30.00   38.57   47.14   55.71   64.29   72.86   81.43   90.00   98.57  107.14  115.71  124.29  132.86  141.43  150.00

   Height   Standard deviation at grid points for the u component:
   301.00    2.385   2.207   2.225   2.349   2.545   2.734   2.733   2.812   2.813   2.717   2.723   2.764   2.727   2.659   2.781   2.821   2.687   2.637   2.641   2.548   2.460   2.458   2.436   2.315   2.278   2.421   2.269   2.128   2.468   2.697   2.652   2.595   2.824   2.776   2.753   2.531
   292.43    2.371   2.203   2.309   2.367   2.482   2.745   2.678   2.862   2.767   2.752   2.680   2.671   2.788   2.630   2.788   2.844   2.924   2.615   2.604   2.488   2.373   2.453   2.496   2.490   2.462   2.372   2.337   2.274   2.390   2.464   2.678   2.587   2.622   2.616   2.479   2.474
   283.86    2.419   2.235   2.252   2.382   2.475   2.569   2.664   2.649   2.641   2.823   2.792   2.828   2.766   2.941   2.847   2.919   2.920   2.822   2.828   2.699   2.510   2.453   2.449   2.414   2.615   2.547   2.415   2.336   2.487   2.602   2.596   2.535   2.433   2.419   2.363   2.486
   275.29    2.408   2.151   2.244   2.360   2.581   2.480   2.512   2.483   2.647   2.761   2.797   2.864   2.617   2.668   2.827   3.023   2.979   2.894   2.875   2.690   2.682   2.416   2.391   2.429   2.550   2.738   2.516   2.532   2.514   2.533   2.589   2.386   2.314   2.369   2.407   2.415
   266.71    2.294   2.274   2.185   2.288   2.490   2.523   2.394   2.546   2.800   2.762   2.746   2.707   2.797   2.510   2.802   2.767   2.902   2.869   2.739   2.687   2.729   2.577   2.585   2.630   2.679   2.817   2.692   2.556   2.500   2.591   2.573   2.254   2.194   2.288   2.424   2.431
   258.14    2.228   2.324   2.248   2.312   2.359   2.493   2.474   2.631   2.658   2.693   2.725   2.706   2.765   2.638   2.602   2.756   2.779   2.906   2.810   2.839   2.857   2.679   2.608   2.756   2.673   2.748   2.791   2.781   2.690   2.539   2.495   2.370   2.386   2.243   2.324   2.256
   249.57    2.318   2.320   2.181   2.281   2.401   2.473   2.429   2.398   2.491   2.572   2.606   2.712   2.933   2.763   2.768   2.776   2.844   2.829   2.814   2.910   2.778   2.606   2.586   2.630   2.641   2.677   2.719   2.798   2.748   2.500   2.340   2.256   2.243   2.280   2.328   2.264
   241.00    2.461   2.441   2.501   2.447   2.433   2.550   2.497   2.500   2.459   2.325   2.613   2.715   2.730   2.906   2.721   2.751   2.731   2.759   2.876   2.766   2.590   2.550   2.485   2.554   2.503   2.763   2.835   2.813   2.580   2.438   2.486   2.360   2.281   2.336   2.375   2.283
   232.43    2.493   2.416   2.506   2.614   2.697   2.643   2.530   2.434   2.357   2.375   2.563   2.681   2.923   2.833   2.567   2.701   2.725   2.796   2.663   2.821   2.715   2.589   2.569   2.657   2.687   2.611   2.632   2.757   2.607   2.682   2.517   2.359   2.262   2.226   2.370   2.419
   223.86    2.362   2.560   2.498   2.551   2.647   2.605   2.501   2.474   2.393   2.375   2.532   2.602   2.807   2.714   2.709   2.608   2.720   2.670   2.703   2.891   2.734   2.646   2.567   2.680   2.586   2.519   2.600   2.660   2.745   2.745   2.697   2.495   2.355   2.152   2.379   2.592
   215.29    2.556   2.534   2.647   2.599   2.632   2.611   2.572   2.486   2.449   2.466   2.478   2.492   2.702   2.643   2.731   2.612   2.662   2.633   2.688   2.743   2.702   2.555   2.533   2.485   2.542   2.343   2.447   2.662   2.612   2.781   2.694   2.462   2.352   2.390   2.390   2.546
   206.71    2.683   2.692   2.715   2.637   2.610   2.567   2.418   2.444   2.521   2.445   2.347   2.596   2.713   2.782   2.673   2.629   2.464   2.436   2.472   2.550   2.550   2.620   2.381   2.306   2.340   2.395   2.470   2.596   2.660   2.759   2.729   2.539   2.442   2.442   2.399   2.470
   198.14    2.655   2.720   2.671   2.515   2.488   2.521   2.439   2.527   2.506   2.342   2.403   2.525   2.615   2.635   2.564   2.503   2.424   2.443   2.383   2.491   2.460   2.313   2.360   2.281   2.359   2.509   2.538   2.674   2.685   2.723   2.634   2.532   2.376   2.322   2.433   2.410
   189.57    2.650   2.641   2.488   2.583   2.475   2.549   2.674   2.577   2.713   2.592   2.708   2.711   2.652   2.684   2.590   2.512   2.597   2.367   2.237   2.386   2.448   2.310   2.548   2.246   2.316   2.494   2.514   2.557   2.619   2.646   2.725   2.674   2.531   2.339   2.299   2.623
   181.00    2.587   2.606   2.424   2.488   2.689   2.574   2.675   2.567   2.734   2.899   2.832   2.732   2.690   2.699   2.621   2.746   2.611   2.438   2.339   2.221   2.397   2.358   2.493   2.373   2.371   2.523   2.555   2.523   2.476   2.586   2.514   2.629   2.620   2.522   2.432   2.514
   172.43    2.637   2.634   2.488   2.615   2.569   2.624   2.706   2.625   2.643   2.848   2.874   2.960   2.689   2.810   2.799   2.504   2.675   2.481   2.267   2.193   2.338   2.322   2.646   2.418   2.503   2.493   2.558   2.588   2.512   2.661   2.592   2.359   2.528   2.644   2.543   2.650
   163.86    2.668   2.606   2.586   2.612   2.687   2.822   2.863   2.704   2.700   2.635   2.607   2.713   2.588   2.734   2.703   2.403   2.463   2.416   2.272   2.294   2.346   2.463   2.592   2.543   2.358   2.325   2.559   2.624   2.564   2.629   2.491   2.483   2.489   2.602   2.576   2.735
   155.29    2.693   2.859   2.755   2.747   2.766   2.831   2.860   2.787   2.700   2.482   2.445   2.500   2.470   2.474   2.413   2.429   2.286   2.426   2.336   2.457   2.445   2.529   2.539   2.537   2.480   2.491   2.421   2.448   2.720   2.486   2.522   2.643   2.568   2.565   2.564   2.665
   146.71    2.648   2.495   2.739   2.673   2.840   2.855   2.691   2.621   2.630   2.469   2.444   2.331   2.547   2.483   2.506   2.570   2.310   2.374   2.478   2.528   2.376   2.431   2.568   2.582   2.530   2.580   2.463   2.566   2.725   2.524   2.620   2.668   2.831   2.773   2.891   2.735
   138.14    2.692   2.614   2.690   2.649   2.898   2.813   2.742   2.649   2.618   2.367   2.369   2.408   2.512   2.550   2.755   2.641   2.544   2.644   2.587   2.502   2.486   2.395   2.411   2.507   2.441   2.477   2.477   2.686   2.683   2.654   2.703   2.776   2.915   3.068   3.080   2.938
   129.57    2.481   2.689   2.601   2.721   2.791   2.743   2.761   2.708   2.569   2.498   2.529   2.600   2.699   2.554   2.585   2.615   2.584   2.534   2.718   2.406   2.581   2.381   2.401   2.475   2.471   2.514   2.546   2.729   2.663   2.671   2.903   2.898   2.942   3.012   3.037   2.989
   121.00    2.682   2.702   2.535   2.519   2.714   2.641   2.597   2.598   2.601   2.632   2.663   2.638   2.662   2.628   2.559   2.533   2.563   2.718   2.598   2.461   2.596   2.408   2.435   2.501   2.528   2.628   2.625   2.817   2.846   2.804   2.900   2.888   3.074   3.108   3.248   3.204
   112.43    2.533   2.491   2.378   2.540   2.477   2.642   2.449   2.668   2.609   2.652   2.674   2.674   2.784   2.670   2.728   2.532   2.698   2.804   2.730   2.601   2.633   2.547   2.367   2.505   2.381   2.588   2.694   2.712   2.735   2.962   3.005   3.035   3.250   3.160   3.048   2.977
   103.86    2.564   2.499   2.430   2.373   2.448   2.627   2.613   2.624   2.558   2.648   2.780   2.807   2.642   2.765   2.745   2.704   2.679   2.655   2.810   2.645   2.682   2.391   2.414   2.439   2.500   2.494   2.758   2.746   2.793   2.939   2.976   3.120   3.203   3.131   3.055   2.961
    95.29    2.627   2.399   2.241   2.382   2.554   2.630   2.700   2.691   2.610   2.669   2.776   2.800   2.667   2.936   2.781   2.678   2.632   2.640   2.711   2.827   2.809   2.661   2.531   2.517   2.450   2.451   2.741   2.727   2.733   2.789   2.966   2.838   3.122   3.141   3.113   2.997
    86.71    2.628   2.521   2.484   2.328   2.493   2.605   2.523   2.660   2.579   2.674   2.755   2.909   2.902   3.107   3.019   2.893   2.778   2.672   2.698   2.838   2.738   2.584   2.464   2.490   2.514   2.447   2.536   2.744   2.808   2.847   2.767   2.885   3.022   2.993   2.870   2.749
    78.14    2.587   2.378   2.464   2.338   2.295   2.511   2.502   2.573   2.588   2.522   2.805   3.011   2.992   2.906   2.967   2.808   2.753   2.885   2.849   2.838   2.698   2.476   2.387   2.467   2.463   2.441   2.609   2.755   2.866   2.899   2.654   2.734   2.953   2.868   2.788   2.755
    69.57    2.606   2.526   2.411   2.407   2.333   2.426   2.568   2.498   2.488   2.754   2.882   2.945   2.910   2.881   2.811   2.865   2.843   2.972   2.846   2.819   2.614   2.401   2.499   2.529   2.677   2.535   2.672   2.882   2.860   2.747   2.675   2.798   2.758   2.722   2.769   2.869
    61.00    2.634   2.542   2.467   2.370   2.329   2.521   2.545   2.478   2.557   2.784   2.849   2.827   2.877   2.775   2.717   2.780   2.943   3.045   2.917   2.615   2.685   2.441   2.463   2.627   2.569   2.650   2.558   2.632   2.695   2.656   2.720   2.722   2.749   2.516   2.776   2.766
    52.43    2.731   2.502   2.484   2.368   2.420   2.430   2.587   2.361   2.502   2.573   2.769   2.703   2.808   2.789   2.702   2.905   2.901   2.960   2.986   2.732   2.651   2.514   2.574   2.649   2.661   2.709   2.653   2.616   2.672   2.622   2.612   2.728   2.617   2.809   2.805   3.030
    43.86    2.819   2.581   2.513   2.503   2.468   2.389   2.380   2.373   2.395   2.376   2.489   2.633   2.640   2.689   2.700   2.772   2.877   3.018   2.857   2.789   2.854   2.608   2.591   2.767   2.694   2.642   2.677   2.732   2.691   2.663   2.814   2.652   2.810   2.809   2.917   3.029
    35.29    2.896   2.681   2.710   2.653   2.572   2.510   2.342   2.505   2.410   2.372   2.485   2.721   2.735   2.702   2.866   2.884   2.758   2.969   2.921   2.883   2.801   2.516   2.649   2.604   2.582   2.763   2.871   2.950   2.766   2.905   2.902   2.823   2.768   2.855   3.047   3.029
    26.71    2.858   2.826   2.622   2.592   2.506   2.439   2.329   2.517   2.410   2.504   2.578   2.766   2.898   2.608   2.850   2.846   2.739   2.827   2.833   2.917   2.861   2.672   2.600   2.538   2.464   2.589   2.743   2.630   2.713   2.769   2.866   2.929   2.820   2.978   2.954   2.960
    18.14    2.870   2.583   2.501   2.574   2.554   2.420   2.405   2.431   2.396   2.499   2.742   2.853   2.832   2.740   2.658   2.747   2.728   2.714   3.023   2.968   2.874   2.759   2.483   2.509   2.636   2.625   2.648   2.575   2.690   2.761   3.001   2.994   3.009   2.895   2.979   2.801
     9.57    2.599   2.544   2.673   2.550   2.469   2.393   2.412   2.406   2.552   2.495   2.633   2.704   2.825   2.835   2.772   2.856   2.790   2.850   2.836   2.928   2.921   2.712   2.591   2.450   2.634   2.478   2.612   2.580   2.660   2.753   2.833   2.795   2.809   2.758   2.774   2.706
     1.00    2.631   2.595   2.559   2.552   2.400   2.238   2.301   2.437   2.413   2.365   2.442   2.426   2.592   2.658   2.833   2.861   2.836   2.771   2.918   2.963   2.928   2.716   2.650   2.617   2.656   2.581   2.679   2.703   2.771   2.709   2.724   2.706   2.518   2.672   2.642   2.558

   Height   Standard deviation at grid points for the v component:
   301.00    2.644   2.644   2.644   2.644   2.644   2.644   2.644   2.644   2.644   2.644   2.644   2.644   2.644   2.644   2.644   2.644   2.644   2.644   2.644   2.644   2.644   2.644   2.644   2.644   2.644   2.644   2.644   2.644   2.644   2.644   2.644   2.644   2.644   2.644   2.644   2.644
   292.43    2.644   2.644   2.644   2.644   2.644   2.644   2.644   2.644   2.644   2.644   2.644   2.644   2.644   2.644   2.644   2.644   2.644   2.644   2.644   2.644   2.644   2.644   2.644   2.644   2.644   2.644   2.644   2.644   2.644   2.644   2.644   2.644   2.644   2.644   2.644   2.644
   283.86    2.644   2.644   2.644   2.644   2.644   2.644   2.644   2.644   2.644   2.644   2.644   2.644   2.644   2.644   2.644   2.644   2.644   2.644   2.644   2.644   2.644   2.644   2.644   2.644   2.644   2.644   2.644   2.644   2.644   2.644   2.644   2.644   2.644   2.644   2.644   2.644
   275.29    2.644   2.644   2.644   2.644   2.644   2.644   2.644   2.644   2.644   2.644   2.644   2.644   2.644   2.644   2.644   2.644   2.644   2.644   2.644   2.644   2.644   2.644   2.644   2.644   2.644   2.644   2.644   2.644   2.644   2.644   2.644   2.644   2.644   2.644   2.644   2.644
   266.71    2.644   2.644   2.644   2.644   2.644   2.644   2.644   2.644   2.644   2.644   2.644   2.644   2.644   2.644   2.644   2.644   2.644   2.644   2.644   2.644   2.644   2.644   2.644   2.644   2.644   2.644   2.644   2.644   2.644   2.644   2.644   2.644   2.644   2.644   2.644   2.644
   258.14    2.644   2.644   2.644   2.644   2.644   2.644   2.644   2.644   2.644   2.644   2.644   2.644   2.644   2.644   2.644   2.644   2.644   2.644   2.644   2.644   2.644   2.644   2.644   2.644   2.644   2.644   2.644   2.644   2.644   2.644   2.644   2.644   2.644   2.644   2.644   2.644
   249.57    2.644   2.644   2.644   2.644   2.644   2.644   2.644   2.644   2.644   2.644   2.644   2.644   2.644   2.644   2.644   2.644   2.644   2.644   2.644   2.644   2.644   2.644   2.644   2.644   2.644   2.644   2.644   2.644   2.644   2.644   2.644   2.644   2.644   2.644   2.644   2.644
   241.00    2.644   2.644   2.644   2.644   2.644   2.644   2.644   2.644   2.644   2.644   2.644   2.644   2.644   2.644   2.644   2.644   2.644   2.644   2.644   2.644   2.644   2.644   2.644   2.644   2.644   2.644   2.644   2.644   2.644   2.644   2.644   2.644   2.644   2.644   2.644   2.644
   232.43    2.644   2.644   2.644   2.644   2.644   2.644   2.644   2.644   2.644   2.644   2.644   2.644   2.644   2.644   2.644   2.644   2.644   2.644   2.644   2.644   2.644   2.644   2.644   2.644   2.644   2.644   2.644   2.644   2.644   2.644   2.644   2.644   2.644   2.644   2.644   2.644
   223.86    2.644   2.644   2.644   2.644   2.644   2.644   2.644   2.644   2.644   2.644   2.644   2.644   2.644   2.644   2.644   2.644   2.644   2.644   2.644   2.644   2.644   2.644   2.644   2.644   2.644   2.644   2.644   2.644   2.644   2.644   2.644   2.644   2.644   2.644   2.644   2.644
   215.29    2.644   2.644   2.644   2.644   2.644   2.644   2.644   2.644   2.644   2.644   2.644   2.644   2.644   2.644   2.644   2.644   2.644   2.644   2.644   2.644   2.644   2.644   2.644   2.644   2.644   2.644   2.644   2.644   2.644   2.644   2.644   2.644   2.644   2.644   2.644   2.644
   206.71    2.644   2.644   2.644   2.644   2.644   2.644   2.644   2.644   2.644   2.644   2.644   2.644   2.644   2.644   2.644   2.644   2.644   2.644   2.644   2.644   2.644   2.644   2.644   2.644   2.644   2.644   2.644   2.644   2.644   2.644   2.644   2.644   2.644   2.644   2.644   2.644
   198.14    2.644   2.644   2.644   2.644   2.644   2.644   2.644   2.644   2.644   2.644   2.644   2.644   2.644   2.644   2.644   2.644   2.644   2.644   2.644   2.644   2.644   2.644   2.644   2.644   2.644   2.644   2.644   2.644   2.644   2.644   2.644   2.644   2.644   2.644   2.644   2.644
   189.57    2.644   2.644   2.644   2.644   2.644   2.644   2.644   2.644   2.644   2.644   2.644   2.644   2.644   2.644   2.644   2.644   2.644   2.644   2.644   2.644   2.644   2.644   2.644   2.644   2.644   2.644   2.644   2.644   2.644   2.644   2.644   2.644   2.644   2.644   2.644   2.644
   181.00    2.644   2.644   2.644   2.644   2.644   2.644   2.644   2.644   2.644   2.644   2.644   2.644   2.644   2.644   2.644   2.644   2.644   2.644   2.644   2.644   2.644   2.644   2.644   2.644   2.644   2.644   2.644   2.644   2.644   2.644   2.644   2.644   2.644   2.644   2.644   2.644
   172.43    2.644   2.644   2.644   2.644   2.644   2.644   2.644   2.644   2.644   2.644   2.644   2.644   2.644   2.644   2.644   2.644   2.644   2.644   2.644   2.644   2.644   2.644   2.644   2.644   2.644   2.644   2.644   2.644   2.644   2.644   2.644   2.644   2.644   2.644   2.644   2.644
   163.86    2.644   2.644   2.644   2.644   2.644   2.644   2.644   2.644   2.644   2.644   2.644   2.644   2.644   2.644   2.644   2.644   2.644   2.644   2.644   2.644   2.644   2.644   2.644   2.644   2.644   2.644   2.644   2.644   2.644   2.644   2.644   2.644   2.644   2.644   2.644   2.644
   155.29    2.644   2.644   2.644   2.644   2.644   2.644   2.644   2.644   2.644   2.644   2.644   2.644   2.644   2.644   2.644   2.644   2.644   2.644   2.644   2.644   2.644   2.644   2.644   2.644   2.644   2.644   2.644   2.644   2.644   2.644   2.644   2.644   2.644   2.644   2.644   2.644
   146.71    2.644   2.644   2.644   2.644   2.644   2.644   2.644   2.644   2.644   2.644   2.644   2.644   2.644   2.644   2.644   2.644   2.644   2.644   2.644   2.644   2.644   2.644   2.644   2.644   2.644   2.644   2.644   2.644   2.644   2.644   2.644   2.644   2.644   2.644   2.644   2.644
   138.14    2.644   2.644   2.644   2.644   2.644   2.644   2.644   2.644   2.644   2.644   2.644   2.644   2.644   2.644   2.644   2.644   2.644   2.644   2.644   2.644   2.644   2.644   2.644   2.644   2.644   2.644   2.644   2.644   2.644   2.644   2.644   2.644   2.644   2.644   2.644   2.644
   129.57    2.644   2.644   2.644   2.644   2.644   2.644   2.644   2.644   2.644   2.644   2.644   2.644   2.644   2.644   2.644   2.644   2.644   2.644   2.644   2.644   2.644   2.644   2.644   2.644   2.644   2.644   2.644   2.644   2.644   2.644   2.644   2.644   2.644   2.644   2.644   2.644
   121.00    2.644   2.644   2.644   2.644   2.644   2.644   2.644   2.644   2.644   2.644   2.644   2.644   2.644   2.644   2.644   2.644   2.644   2.644   2.644   2.644   2.644   2.644   2.644   2.644   2.644   2.644   2.644   2.644   2.644   2.644   2.644   2.644   2.644   2.644   2.644   2.644
   112.43    2.644   2.644   2.644   2.644   2.644   2.644   2.644   2.644   2.644   2.644   2.644   2.644   2.644   2.644   2.644   2.644   2.644   2.644   2.644   2.644   2.644   2.644   2.644   2.644   2.644   2.644   2.644   2.644   2.644   2.644   2.644   2.644   2.644   2.644   2.644   2.644
   103.86    2.644   2.644   2.644   2.644   2.644   2.644   2.644   2.644   2.644   2.644   2.644   2.644   2.644   2.644   2.644   2.644   2.644   2.644   2.644   2.644   2.644   2.644   2.644   2.644   2.644   2.644   2.644   2.644   2.644   2.644   2.644   2.644   2.644   2.644   2.644   2.644
    95.29    2.644   2.644   2.644   2.644   2.644   2.644   2.644   2.644   2.644   2.644   2.644   2.644   2.644   2.644   2.644   2.644   2.644   2.644   2.644   2.644   2.644   2.644   2.644   2.644   2.644   2.644   2.644   2.644   2.644   2.644   2.644   2.644   2.644   2.644   2.644   2.644
    86.71    2.644   2.644   2.644   2.644   2.644   2.644   2.644   2.644   2.644   2.644   2.644   2.644   2.644   2.644   2.644   2.644   2.644   2.644   2.644   2.644   2.644   2.644   2.644   2.644   2.644   2.644   2.644   2.644   2.644   2.644   2.644   2.644   2.644   2.644   2.644   2.644
    78.14    2.644   2.644   2.644   2.644   2.644   2.644   2.644   2.644   2.644   2.644   2.644   2.644   2.644   2.644   2.644   2.644   2.644   2.644   2.644   2.644   2.644   2.644   2.644   2.644   2.644   2.644   2.644   2.644   2.644   2.644   2.644   2.644   2.644   2.644   2.644   2.644
    69.57    2.644   2.644   2.644   2.644   2.644   2.644   2.644   2.644   2.644   2.644   2.644   2.644   2.644   2.644   2.644   2.644   2.644   2.644   2.644   2.644   2.644   2.644   2.644   2.644   2.644   2.644   2.644   2.644   2.644   2.644   2.644   2.644   2.644   2.644   2.644   2.644
    61.00    2.644   2.644   2.644   2.644   2.644   2.644   2.644   2.644   2.644   2.644   2.644   2.644   2.644   2.644   2.644   2.644   2.644   2.644   2.644   2.644   2.644   2.644   2.644   2.644   2.644   2.644   2.644   2.644   2.644   2.644   2.644   2.644   2.644   2.644   2.644   2.644
    52.43    2.644   2.644   2.644   2.644   2.644   2.644   2.644   2.644   2.644   2.644   2.644   2.644   2.644   2.644   2.644   2.644   2.644   2.644   2.644   2.644   2.644   2.644   2.644   2.644   2.644   2.644   2.644   2.644   2.644   2.644   2.644   2.644   2.644   2.644   2.644   2.644
    43.86    2.644   2.644   2.644   2.644   2.644   2.644   2.644   2.644   2.644   2.644   2.644   2.644   2.644   2.644   2.644   2.644   2.644   2.644   2.644   2.644   2.644   2.644   2.644   2.644   2.644   2.644   2.644   2.644   2.644   2.644   2.644   2.644   2.644   2.644   2.644   2.644
    35.29    2.644   2.644   2.644   2.644   2.644   2.644   2.644   2.644   2.644   2.644   2.644   2.644   2.644   2.644   2.644   2.644   2.644   2.644   2.644   2.644   2.644   2.644   2.644   2.644   2.644   2.644   2.644   2.644   2.644   2.644   2.644   2.644   2.644   2.644   2.644   2.644
    26.71    2.644   2.644   2.644   2.644   2.644   2.644   2.644   2.644   2.644   2.644   2.644   2.644   2.644   2.644   2.644   2.644   2.644   2.644   2.644   2.644   2.644   2.644   2.644   2.644   2.644   2.644   2.644   2.644   2.644   2.644   2.644   2.644   2.644   2.644   2.644   2.644
    18.14    2.644   2.644   2.644   2.644   2.644   2.644   2.644   2.644   2.644   2.644   2.644   2.644   2.644   2.644   2.644   2.644   2.644   2.644   2.644   2.644   2.644   2.644   2.644   2.644   2.644   2.644   2.644   2.644   2.644   2.644   2.644   2.644   2.644   2.644   2.644   2.644
     9.57    2.644   2.644   2.644   2.644   2.644   2.644   2.644   2.644   2.644   2.644   2.644   2.644   2.644   2.644   2.644   2.644   2.644   2.644   2.644   2.644   2.644   2.644   2.644   2.644   2.644   2.644   2.644   2.644   2.644   2.644   2.644   2.644   2.644   2.644   2.644   2.644
     1.00    2.644   2.644   2.644   2.644   2.644   2.644   2.644   2.644   2.644   2.644   2.644   2.644   2.644   2.644   2.644   2.644   2.644   2.644   2.644   2.644   2.644   2.644   2.644   2.644   2.644   2.644   2.644   2.644   2.644   2.644   2.644   2.644   2.644   2.644   2.644   2.644

   Height   Standard deviation at grid points for the w component:
   301.00    2.644   2.644   2.644   2.644   2.644   2.644   2.644   2.644   2.644   2.644   2.644   2.644   2.644   2.644   2.644   2.644   2.644   2.644   2.644   2.644   2.644   2.644   2.644   2.644   2.644   2.644   2.644   2.644   2.644   2.644   2.644   2.644   2.644   2.644   2.644   2.644
   292.43    2.644   2.644   2.644   2.644   2.644   2.644   2.644   2.644   2.644   2.644   2.644   2.644   2.644   2.644   2.644   2.644   2.644   2.644   2.644   2.644   2.644   2.644   2.644   2.644   2.644   2.644   2.644   2.644   2.644   2.644   2.644   2.644   2.644   2.644   2.644   2.644
   283.86    2.644   2.644   2.644   2.644   2.644   2.644   2.644   2.644   2.644   2.644   2.644   2.644   2.644   2.644   2.644   2.644   2.644   2.644   2.644   2.644   2.644   2.644   2.644   2.644   2.644   2.644   2.644   2.644   2.644   2.644   2.644   2.644   2.644   2.644   2.644   2.644
   275.29    2.644   2.644   2.644   2.644   2.644   2.644   2.644   2.644   2.644   2.644   2.644   2.644   2.644   2.644   2.644   2.644   2.644   2.644   2.644   2.644   2.644   2.644   2.644   2.644   2.644   2.644   2.644   2.644   2.644   2.644   2.644   2.644   2.644   2.644   2.644   2.644
   266.71    2.644   2.644   2.644   2.644   2.644   2.644   2.644   2.644   2.644   2.644   2.644   2.644   2.644   2.644   2.644   2.644   2.644   2.644   2.644   2.644   2.644   2.644   2.644   2.644   2.644   2.644   2.644   2.644   2.644   2.644   2.644   2.644   2.644   2.644   2.644   2.644
   258.14    2.644   2.644   2.644   2.644   2.644   2.644   2.644   2.644   2.644   2.644   2.644   2.644   2.644   2.644   2.644   2.644   2.644   2.644   2.644   2.644   2.644   2.644   2.644   2.644   2.644   2.644   2.644   2.644   2.644   2.644   2.644   2.644   2.644   2.644   2.644   2.644
   249.57    2.644   2.644   2.644   2.644   2.644   2.644   2.644   2.644   2.644   2.644   2.644   2.644   2.644   2.644   2.644   2.644   2.644   2.644   2.644   2.644   2.644   2.644   2.644   2.644   2.644   2.644   2.644   2.644   2.644   2.644   2.644   2.644   2.644   2.644   2.644   2.644
   241.00    2.644   2.644   2.644   2.644   2.644   2.644   2.644   2.644   2.644   2.644   2.644   2.644   2.644   2.644   2.644   2.644   2.644   2.644   2.644   2.644   2.644   2.644   2.644   2.644   2.644   2.644   2.644   2.644   2.644   2.644   2.644   2.644   2.644   2.644   2.644   2.644
   232.43    2.644   2.644   2.644   2.644   2.644   2.644   2.644   2.644   2.644   2.644   2.644   2.644   2.644   2.644   2.644   2.644   2.644   2.644   2.644   2.644   2.644   2.644   2.644   2.644   2.644   2.644   2.644   2.644   2.644   2.644   2.644   2.644   2.644   2.644   2.644   2.644
   223.86    2.644   2.644   2.644   2.644   2.644   2.644   2.644   2.644   2.644   2.644   2.644   2.644   2.644   2.644   2.644   2.644   2.644   2.644   2.644   2.644   2.644   2.644   2.644   2.644   2.644   2.644   2.644   2.644   2.644   2.644   2.644   2.644   2.644   2.644   2.644   2.644
   215.29    2.644   2.644   2.644   2.644   2.644   2.644   2.644   2.644   2.644   2.644   2.644   2.644   2.644   2.644   2.644   2.644   2.644   2.644   2.644   2.644   2.644   2.644   2.644   2.644   2.644   2.644   2.644   2.644   2.644   2.644   2.644   2.644   2.644   2.644   2.644   2.644
   206.71    2.644   2.644   2.644   2.644   2.644   2.644   2.644   2.644   2.644   2.644   2.644   2.644   2.644   2.644   2.644   2.644   2.644   2.644   2.644   2.644   2.644   2.644   2.644   2.644   2.644   2.644   2.644   2.644   2.644   2.644   2.644   2.644   2.644   2.644   2.644   2.644
   198.14    2.644   2.644   2.644   2.644   2.644   2.644   2.644   2.644   2.644   2.644   2.644   2.644   2.644   2.644   2.644   2.644   2.644   2.644   2.644   2.644   2.644   2.644   2.644   2.644   2.644   2.644   2.644   2.644   2.644   2.644   2.644   2.644   2.644   2.644   2.644   2.644
   189.57    2.644   2.644   2.644   2.644   2.644   2.644   2.644   2.644   2.644   2.644   2.644   2.644   2.644   2.644   2.644   2.644   2.644   2.644   2.644   2.644   2.644   2.644   2.644   2.644   2.644   2.644   2.644   2.644   2.644   2.644   2.644   2.644   2.644   2.644   2.644   2.644
   181.00    2.644   2.644   2.644   2.644   2.644   2.644   2.644   2.644   2.644   2.644   2.644   2.644   2.644   2.644   2.644   2.644   2.644   2.644   2.644   2.644   2.644   2.644   2.644   2.644   2.644   2.644   2.644   2.644   2.644   2.644   2.644   2.644   2.644   2.644   2.644   2.644
   172.43    2.644   2.644   2.644   2.644   2.644   2.644   2.644   2.644   2.644   2.644   2.644   2.644   2.644   2.644   2.644   2.644   2.644   2.644   2.644   2.644   2.644   2.644   2.644   2.644   2.644   2.644   2.644   2.644   2.644   2.644   2.644   2.644   2.644   2.644   2.644   2.644
   163.86    2.644   2.644   2.644   2.644   2.644   2.644   2.644   2.644   2.644   2.644   2.644   2.644   2.644   2.644   2.644   2.644   2.644   2.644   2.644   2.644   2.644   2.644   2.644   2.644   2.644   2.644   2.644   2.644   2.644   2.644   2.644   2.644   2.644   2.644   2.644   2.644
   155.29    2.644   2.644   2.644   2.644   2.644   2.644   2.644   2.644   2.644   2.644   2.644   2.644   2.644   2.644   2.644   2.644   2.644   2.644   2.644   2.644   2.644   2.644   2.644   2.644   2.644   2.644   2.644   2.644   2.644   2.644   2.644   2.644   2.644   2.644   2.644   2.644
   146.71    2.644   2.644   2.644   2.644   2.644   2.644   2.644   2.644   2.644   2.644   2.644   2.644   2.644   2.644   2.644   2.644   2.644   2.644   2.644   2.644   2.644   2.644   2.644   2.644   2.644   2.644   2.644   2.644   2.644   2.644   2.644   2.644   2.644   2.644   2.644   2.644
   138.14    2.644   2.644   2.644   2.644   2.644   2.644   2.644   2.644   2.644   2.644   2.644   2.644   2.644   2.644   2.644   2.644   2.644   2.644   2.644   2.644   2.644   2.644   2.644   2.644   2.644   2.644   2.644   2.644   2.644   2.644   2.644   2.644   2.644   2.644   2.644   2.644
   129.57    2.644   2.644   2.644   2.644   2.644   2.644   2.644   2.644   2.644   2.644   2.644   2.644   2.644   2.644   2.644   2.644   2.644   2.644   2.644   2.644   2.644   2.644   2.644   2.644   2.644   2.644   2.644   2.644   2.644   2.644   2.644   2.644   2.644   2.644   2.644   2.644
   121.00    2.644   2.644   2.644   2.644   2.644   2.644   2.644   2.644   2.644   2.644   2.644   2.644   2.644   2.644   2.644   2.644   2.644   2.644   2.644   2.644   2.644   2.644   2.644   2.644   2.644   2.644   2.644   2.644   2.644   2.644   2.644   2.644   2.644   2.644   2.644   2.644
   112.43    2.644   2.644   2.644   2.644   2.644   2.644   2.644   2.644   2.644   2.644   2.644   2.644   2.644   2.644   2.644   2.644   2.644   2.644   2.644   2.644   2.644   2.644   2.644   2.644   2.644   2.644   2.644   2.644   2.644   2.644   2.644   2.644   2.644   2.644   2.644   2.644
   103.86    2.644   2.644   2.644   2.644   2.644   2.644   2.644   2.644   2.644   2.644   2.644   2.644   2.644   2.644   2.644   2.644   2.644   2.644   2.644   2.644   2.644   2.644   2.644   2.644   2.644   2.644   2.644   2.644   2.644   2.644   2.644   2.644   2.644   2.644   2.644   2.644
    95.29    2.644   2.644   2.644   2.644   2.644   2.644   2.644   2.644   2.644   2.644   2.644   2.644   2.644   2.644   2.644   2.644   2.644   2.644   2.644   2.644   2.644   2.644   2.644   2.644   2.644   2.644   2.644   2.644   2.644   2.644   2.644   2.644   2.644   2.644   2.644   2.644
    86.71    2.644   2.644   2.644   2.644   2.644   2.644   2.644   2.644   2.644   2.644   2.644   2.644   2.644   2.644   2.644   2.644   2.644   2.644   2.644   2.644   2.644   2.644   2.644   2.644   2.644   2.644   2.644   2.644   2.644   2.644   2.644   2.644   2.644   2.644   2.644   2.644
    78.14    2.644   2.644   2.644   2.644   2.644   2.644   2.644   2.644   2.644   2.644   2.644   2.644   2.644   2.644   2.644   2.644   2.644   2.644   2.644   2.644   2.644   2.644   2.644   2.644   2.644   2.644   2.644   2.644   2.644   2.644   2.644   2.644   2.644   2.644   2.644   2.644
    69.57    2.644   2.644   2.644   2.644   2.644   2.644   2.644   2.644   2.644   2.644   2.644   2.644   2.644   2.644   2.644   2.644   2.644   2.644   2.644   2.644   2.644   2.644   2.644   2.644   2.644   2.644   2.644   2.644   2.644   2.644   2.644   2.644   2.644   2.644   2.644   2.644
    61.00    2.644   2.644   2.644   2.644   2.644   2.644   2.644   2.644   2.644   2.644   2.644   2.644   2.644   2.644   2.644   2.644   2.644   2.644   2.644   2.644   2.644   2.644   2.644   2.644   2.644   2.644   2.644   2.644   2.644   2.644   2.644   2.644   2.644   2.644   2.644   2.644
    52.43    2.644   2.644   2.644   2.644   2.644   2.644   2.644   2.644   2.644   2.644   2.644   2.644   2.644   2.644   2.644   2.644   2.644   2.644   2.644   2.644   2.644   2.644   2.644   2.644   2.644   2.644   2.644   2.644   2.644   2.644   2.644   2.644   2.644   2.644   2.644   2.644
    43.86    2.644   2.644   2.644   2.644   2.644   2.644   2.644   2.644   2.644   2.644   2.644   2.644   2.644   2.644   2.644   2.644   2.644   2.644   2.644   2.644   2.644   2.644   2.644   2.644   2.644   2.644   2.644   2.644   2.644   2.644   2.644   2.644   2.644   2.644   2.644   2.644
    35.29    2.644   2.644   2.644   2.644   2.644   2.644   2.644   2.644   2.644   2.644   2.644   2.644   2.644   2.644   2.644   2.644   2.644   2.644   2.644   2.644   2.644   2.644   2.644   2.644   2.644   2.644   2.644   2.644   2.644   2.644   2.644   2.644   2.644   2.644   2.644   2.644
    26.71    2.644   2.644   2.644   2.644   2.644   2.644   2.644   2.644   2.644   2.644   2.644   2.644   2.644   2.644   2.644   2.644   2.644   2.644   2.644   2.644   2.644   2.644   2.644   2.644   2.644   2.644   2.644   2.644   2.644   2.644   2.644   2.644   2.644   2.644   2.644   2.644
    18.14    2.644   2.644   2.644   2.644   2.644   2.644   2.644   2.644   2.644   2.644   2.644   2.644   2.644   2.644   2.644   2.644   2.644   2.644   2.644   2.644   2.644   2.644   2.644   2.644   2.644   2.644   2.644   2.644   2.644   2.644   2.644   2.644   2.644   2.644   2.644   2.644
     9.57    2.644   2.644   2.644   2.644   2.644   2.644   2.644   2.644   2.644   2.644   2.644   2.644   2.644   2.644   2.644   2.644   2.644   2.644   2.644   2.644   2.644   2.644   2.644   2.644   2.644   2.644   2.644   2.644   2.644   2.644   2.644   2.644   2.644   2.644   2.644   2.644
     1.00    2.644   2.644   2.644   2.644   2.644   2.644   2.644   2.644   2.644   2.644   2.644   2.644   2.644   2.644   2.644   2.644   2.644   2.644   2.644   2.644   2.644   2.644   2.644   2.644   2.644   2.644   2.644   2.644   2.644   2.644   2.644   2.644   2.644   2.644   2.644   2.644

   Mean standard deviation across all grid points:
      u component:    2.621 m/s
      v component:    2.644 m/s
      w component:    2.644 m/s


U-component (X) statistics from the interpolated hub point:

   Mean =  14.9596 m/s
   TI   =  14.0859 %


Normalizing Parameters for Binary Data (approximate statistics):

   UBar  =  14.9606 m/s
   TI(u) =  16.1755 %
   TI(v) =  17.6723 %
   TI(w) =  17.6723 %

   Height Offset =   0.0000 m
   Grid Base     =   1.0000 m

Creating a PERIODIC output file.


Processing complete.  117.38 CPU seconds used.
