
This summary file was generated by TurbSim (v2.00.07a-bjj, 14-Jun-2016) on 03-Nov-2023 at 03:26:57.


Runtime Options:

      5301  Random seed #1
    RANLUX  Type of random number generator
         F  Output binary HH turbulence parameters?
         F  Output formatted turbulence parameters?
         F  Output AeroDyn HH files?
         F  Output AeroDyn FF files?
         T  Output BLADED FF files?
         F  Output tower data?
         F  Output formatted FF files?
         F  Output coherent turbulence time step file?
         T  Clockwise rotation when looking downwind?
 0 -  NONE  IEC turbulence models scaled to exact specified standard deviation


Turbine/Model Specifications:

        36  Vertical grid-point matrix dimension
        36  Horizontal grid-point matrix dimension
     0.100  Time step [seconds]
   660.000  Analysis time [seconds]
   660.000  Usable output time [seconds]
   151.000  Hub height [m]
   300.000  Grid height [m]
   300.000  Grid width [m]
     0.000  Vertical flow angle [degrees]
     0.000  Horizontal flow angle [degrees]


Meteorological Boundary Conditions:

    IECVKM  IEC von Karman spectral model
         1  IEC standard: IEC 61400-1 Ed. 3: 2005
         A  IEC turbulence characteristic
       NTM  IEC Normal Turbulence Model
       N/A  IEC Extreme Turbulence Model (ETM) "c" parameter [m/s]
       PL   Wind profile type
   153.000  Reference height [m]
    22.000  Reference wind speed [m/s]
       N/A  Jet height [m]
     0.200  Power law exponent
     0.030  Surface roughness length [m]


Non-IEC Meteorological Boundary Conditions:

       N/A  Site latitude [degrees]
       N/A  Gradient Richardson number
       N/A  Friction or shear velocity [m/s]
       N/A  Mixing layer depth [m]
       N/A  Mean hub u'w' Reynolds stress
       N/A  Mean hub u'v' Reynolds stress
       N/A  Mean hub v'w' Reynolds stress


Spatial Coherence Models:

       IEC  u-component coherence model
      NONE  v-component coherence model
      NONE  w-component coherence model
(   12.000, 0.353E-03)  u-component coherence parameters
                   N/A  v-component coherence parameters
                   N/A  w-component coherence parameters
       N/A  Coherence exponent


You have requested that the following file(s) be generated:

   G:\2023\OpenWECDV1.0.0_x64\BaseLIne\wind\WindL_V_22_seed_5301.wnd (AeroDyn/BLADED full-field wnd file)


Turbulence Simulation Scaling Parameter Summary:

   Turbulence model used                            =  IEC von Karman
   Turbulence characteristic                        =  A
   IEC turbulence type                              =  Normal Turbulence Model
   IEC standard                                     =  IEC 61400-1 Ed. 3: 2005
   Mean wind speed at hub height                    =   21.942 m/s
   Expected value of turbulence intensity at 15 m/s =   16.000%
   Characteristic value of standard deviation       =    3.529 m/s
   Turbulence scale                                 =   42.000 m
   Isotropic integral scale                         =  147.000 m
   Characteristic value of hub turbulence intensity =   16.083%
   Gradient Richardson number                       =    0.000

   Wind profile type                                =  Power law
   Power law exponent                               =    0.200
   Mean shear across rotor disk                     =    0.057 (m/s)/m
   Assumed rotor diameter                           =  300.000 m
   Surface roughness length                         =    0.030 m

   Nyquist frequency of turbulent wind field        =    5.000 Hz

   Number of time steps in the FFT                  =     6600
   Number of time steps output                      =     6600
   Number of points simulated                       =     1297


Mean Flow Angles:

   Vertical   =   0.0 degrees
   Horizontal =   0.0 degrees

Mean Wind Speed Profile:

   Height    Wind Speed   Horizontal Angle  Vertical Angle  U-comp (X)   V-comp (Y)   W-comp (Z)
     (m)        (m/s)         (degrees)       (degrees)       (m/s)        (m/s)        (m/s)   
   ------    ----------   ----------------  --------------  ----------   ----------   ----------
    301.0       25.19            0.00            0.00         25.19         0.00         0.00
    292.4       25.04            0.00            0.00         25.04         0.00         0.00
    283.9       24.89            0.00            0.00         24.89         0.00         0.00
    275.3       24.74            0.00            0.00         24.74         0.00         0.00
    266.7       24.59            0.00            0.00         24.59         0.00         0.00
    258.1       24.43            0.00            0.00         24.43         0.00         0.00
    249.6       24.26            0.00            0.00         24.26         0.00         0.00
    241.0       24.09            0.00            0.00         24.09         0.00         0.00
    232.4       23.92            0.00            0.00         23.92         0.00         0.00
    223.9       23.74            0.00            0.00         23.74         0.00         0.00
    215.3       23.56            0.00            0.00         23.56         0.00         0.00
    206.7       23.36            0.00            0.00         23.36         0.00         0.00
    198.1       23.17            0.00            0.00         23.17         0.00         0.00
    189.6       22.96            0.00            0.00         22.96         0.00         0.00
    181.0       22.75            0.00            0.00         22.75         0.00         0.00
    172.4       22.53            0.00            0.00         22.53         0.00         0.00
    163.9       22.30            0.00            0.00         22.30         0.00         0.00
    155.3       22.07            0.00            0.00         22.07         0.00         0.00
    151.0       21.94            0.00            0.00         21.94         0.00         0.00
    146.7       21.82            0.00            0.00         21.82         0.00         0.00
    138.1       21.56            0.00            0.00         21.56         0.00         0.00
    129.6       21.28            0.00            0.00         21.28         0.00         0.00
    121.0       20.99            0.00            0.00         20.99         0.00         0.00
    112.4       20.69            0.00            0.00         20.69         0.00         0.00
    103.9       20.36            0.00            0.00         20.36         0.00         0.00
     95.3       20.01            0.00            0.00         20.01         0.00         0.00
     86.7       19.64            0.00            0.00         19.64         0.00         0.00
     78.1       19.23            0.00            0.00         19.23         0.00         0.00
     69.6       18.79            0.00            0.00         18.79         0.00         0.00
     61.0       18.30            0.00            0.00         18.30         0.00         0.00
     52.4       17.76            0.00            0.00         17.76         0.00         0.00
     43.9       17.14            0.00            0.00         17.14         0.00         0.00
     35.3       16.41            0.00            0.00         16.41         0.00         0.00
     26.7       15.52            0.00            0.00         15.52         0.00         0.00
     18.1       14.36            0.00            0.00         14.36         0.00         0.00
      9.6       12.64            0.00            0.00         12.64         0.00         0.00
      1.0        8.04            0.00            0.00          8.04         0.00         0.00


Harvested Random Seeds after Generation of the Random Numbers:

    119307688 K 1
            0 K 2


Hub-Height Simulated Turbulence Statistical Summary:

   Type of Wind        Min (m/s)   Mean (m/s)    Max (m/s)  Sigma (m/s)       TI (%)
   ----------------    ---------   ----------    ---------  -----------       ------
   Longitudinal (u)        12.04        21.94        31.13        3.142       14.318
   Lateral (v)            -11.89        -0.00        11.19        3.467       15.798
   Vertical (w)           -10.76         0.00        11.18        3.467       15.798
   U component             12.04        21.94        31.13        3.142       14.318
   V component            -11.89        -0.00        11.19        3.467       15.798
   W component            -10.76         0.00        11.18        3.467       15.798
   Horizontal (U&V)        12.04        22.22        31.35        3.119       14.040
   Total                   13.21        22.49        31.93        3.095       13.764

                       Min Reynolds     Mean Reynolds    Max Reynolds    Correlation
   Product             Stress (m/s)^2   Stress (m/s)^2   Stress (m/s)^2  Coefficient
   ----------------    --------------   --------------   --------------  -----------
   u'w'                    -63.765            -0.764            66.328        -0.070
   u'v'                    -56.364             0.404            59.567         0.037
   v'w'                    -62.624            -1.001            64.821        -0.083


   Friction Velocity (Ustar)  =      0.874 m/s
   Maximum Instantaneous TKE  =     81.567 (m/s)^2
   Maximum Instantaneous CTKE =     44.482 (m/s)^2


Grid Point Variance Summary:

   Y-coord -150.00 -141.43 -132.86 -124.29 -115.71 -107.14  -98.57  -90.00  -81.43  -72.86  -64.29  -55.71  -47.14  -38.57  -30.00  -21.43  -12.86   -4.29    4.29   12.86   21.43   30.00   38.57   47.14   55.71   64.29   72.86   81.43   90.00   98.57  107.14  115.71  124.29  132.86  141.43  150.00

   Height   Standard deviation at grid points for the u component:
   301.00    3.546   3.399   3.327   3.272   3.234   3.145   3.024   2.951   3.074   3.194   3.140   3.299   3.432   3.322   3.430   3.411   3.493   3.494   3.592   3.505   3.371   3.322   3.409   3.440   3.337   3.403   3.543   3.522   3.488   3.377   3.270   3.082   2.871   3.001   3.038   3.267
   292.43    3.365   3.386   3.128   3.179   3.191   3.158   2.979   3.034   3.055   3.155   3.234   3.378   3.333   3.444   3.487   3.412   3.489   3.496   3.570   3.440   3.595   3.414   3.400   3.416   3.339   3.359   3.357   3.504   3.554   3.368   3.294   3.105   3.109   3.157   3.145   3.250
   283.86    3.306   3.205   3.092   3.222   3.195   3.064   2.968   3.034   3.138   3.091   3.451   3.567   3.493   3.480   3.578   3.585   3.364   3.417   3.432   3.396   3.268   3.280   3.343   3.372   3.224   3.450   3.495   3.434   3.610   3.424   3.198   3.297   3.219   3.180   3.172   3.116
   275.29    3.441   3.398   3.280   3.208   3.239   3.255   3.149   3.083   3.087   3.084   3.293   3.484   3.415   3.500   3.600   3.389   3.577   3.406   3.363   3.407   3.362   3.327   3.567   3.442   3.396   3.491   3.373   3.395   3.552   3.573   3.449   3.261   3.200   3.116   3.123   3.189
   266.71    3.570   3.454   3.492   3.364   3.397   3.173   3.133   3.019   3.188   3.347   3.346   3.435   3.485   3.472   3.406   3.467   3.391   3.374   3.420   3.506   3.392   3.252   3.504   3.504   3.480   3.332   3.397   3.422   3.453   3.635   3.458   3.460   3.208   3.237   3.372   3.495
   258.14    3.580   3.450   3.421   3.336   3.314   3.055   3.019   3.227   3.274   3.204   3.361   3.258   3.384   3.253   3.279   3.456   3.419   3.442   3.281   3.297   3.235   3.218   3.397   3.461   3.393   3.347   3.361   3.549   3.804   3.785   3.508   3.309   3.311   3.350   3.381   3.489
   249.57    3.447   3.387   3.403   3.425   3.225   3.103   2.997   3.090   3.177   3.114   3.273   3.351   3.288   3.231   3.406   3.325   3.437   3.309   3.152   3.365   3.175   3.306   3.484   3.388   3.639   3.510   3.488   3.644   3.757   3.678   3.500   3.381   3.318   3.395   3.381   3.400
   241.00    3.358   3.232   3.414   3.379   3.498   3.189   3.096   3.052   3.268   3.261   3.198   3.392   3.238   3.299   3.454   3.280   3.163   3.115   3.188   3.096   3.156   3.402   3.426   3.474   3.612   3.569   3.592   3.774   3.724   3.578   3.396   3.395   3.491   3.772   3.594   3.505
   232.43    3.160   3.311   3.247   3.377   3.291   3.224   3.055   2.961   3.123   3.223   3.135   3.150   3.292   3.304   3.417   3.183   3.168   3.089   3.044   3.022   2.940   3.234   3.336   3.305   3.322   3.388   3.460   3.623   3.605   3.441   3.347   3.413   3.398   3.678   3.536   3.554
   223.86    3.243   3.290   3.231   3.361   3.107   3.175   3.062   3.059   3.016   3.181   2.947   3.043   3.242   3.264   3.587   3.621   3.399   3.236   3.083   3.004   3.108   3.016   3.070   3.059   3.301   3.185   3.469   3.416   3.527   3.487   3.464   3.383   3.346   3.437   3.415   3.505
   215.29    3.392   3.326   3.331   3.303   3.285   3.080   3.095   3.119   3.126   3.119   3.164   3.041   3.370   3.460   3.365   3.551   3.619   3.621   3.346   3.130   3.119   3.146   3.152   3.079   3.134   3.186   3.285   3.366   3.266   3.199   3.365   3.204   3.170   3.381   3.303   3.273
   206.71    3.417   3.385   3.349   3.321   3.269   3.327   3.228   3.243   3.311   3.143   3.115   3.282   3.407   3.486   3.474   3.512   3.596   3.590   3.342   3.266   3.365   3.178   3.133   3.206   3.285   3.162   3.398   3.267   3.344   3.245   3.198   3.173   3.160   3.238   3.166   3.084
   198.14    3.506   3.384   3.251   3.478   3.427   3.417   3.363   3.282   3.399   3.315   3.352   3.536   3.503   3.342   3.394   3.586   3.509   3.492   3.308   3.352   3.344   3.201   3.263   3.405   3.223   3.290   3.177   3.304   3.290   3.240   3.156   3.249   3.065   3.198   3.038   3.116
   189.57    3.637   3.639   3.449   3.609   3.371   3.418   3.452   3.247   3.324   3.094   3.317   3.408   3.437   3.177   3.284   3.477   3.530   3.418   3.328   3.277   3.147   3.234   3.208   3.275   3.163   3.248   3.180   3.165   3.353   3.128   3.094   3.202   3.094   3.227   3.322   3.303
   181.00    3.637   3.588   3.573   3.637   3.425   3.439   3.500   3.485   3.212   3.139   3.284   3.454   3.205   3.240   3.296   3.405   3.453   3.200   3.197   3.240   3.196   3.238   3.305   3.173   3.107   3.210   3.228   3.154   3.377   3.155   3.148   3.231   3.194   3.290   3.230   3.321
   172.43    3.697   3.796   3.681   3.708   3.678   3.558   3.399   3.317   3.110   3.039   3.182   3.371   3.336   3.278   3.270   3.245   3.188   3.222   3.072   2.939   3.060   3.090   3.160   2.991   3.078   3.247   3.192   3.204   3.171   3.108   3.246   3.216   3.279   3.261   3.349   3.279
   163.86    3.595   3.651   3.675   3.552   3.601   3.522   3.345   3.280   3.195   3.022   3.078   3.206   3.244   3.351   3.449   3.429   3.122   3.186   3.166   2.984   2.917   3.027   3.122   2.924   3.110   3.290   3.093   3.064   3.225   3.138   3.208   3.260   3.325   3.221   3.148   3.231
   155.29    3.279   3.307   3.374   3.353   3.353   3.240   3.205   3.208   3.184   3.039   3.084   3.115   3.286   3.369   3.513   3.285   3.194   3.199   3.106   3.038   2.865   3.085   3.116   3.113   3.044   3.138   3.209   3.187   3.133   3.063   3.138   3.263   3.252   3.269   3.215   3.132
   146.71    3.250   3.166   3.220   3.246   3.279   3.300   3.162   3.219   3.164   2.994   2.975   3.064   3.152   3.261   3.390   3.290   3.182   3.220   3.258   3.170   2.982   3.080   2.981   2.836   3.134   3.176   3.222   3.274   3.094   3.034   3.177   3.129   3.223   3.214   3.181   3.233
   138.14    3.185   3.091   3.148   3.102   3.235   3.305   3.152   2.925   3.005   2.949   2.959   2.889   3.065   3.152   3.267   3.161   3.106   3.117   3.175   3.142   3.114   2.954   2.915   2.896   3.156   3.195   3.180   3.147   3.097   2.970   2.968   3.166   3.250   3.091   3.092   3.119
   129.57    3.169   3.238   3.103   3.226   3.283   3.158   2.998   2.917   2.843   2.930   2.796   2.964   3.128   3.224   3.131   3.082   3.173   3.130   3.428   3.135   2.927   2.938   2.834   2.841   3.186   3.123   3.100   2.897   2.950   3.075   2.939   3.046   3.135   3.058   3.083   3.368
   121.00    3.235   3.231   3.141   3.189   3.206   3.201   2.936   2.892   3.016   3.066   2.830   2.808   2.822   2.957   3.146   3.124   3.127   3.321   3.305   3.008   2.837   2.824   3.032   3.063   3.095   3.341   3.188   3.064   3.099   3.172   3.138   3.074   3.048   3.233   3.206   3.337
   112.43    3.237   3.208   3.160   3.076   3.191   3.234   2.987   2.785   3.039   3.008   2.895   2.908   2.780   2.955   3.036   3.070   3.096   3.213   3.301   3.139   2.947   3.026   3.030   3.102   2.995   3.348   3.212   3.124   3.078   3.012   3.151   2.936   2.971   3.223   3.303   3.419
   103.86    3.416   3.420   3.298   3.263   3.084   3.150   3.003   3.050   2.939   2.933   2.933   2.903   2.978   2.945   3.102   3.188   3.201   3.171   3.274   3.109   3.121   3.179   3.132   3.126   3.268   3.351   3.251   3.225   3.257   3.381   3.184   3.056   3.030   3.232   3.354   3.445
    95.29    3.412   3.596   3.435   3.373   3.189   3.234   3.126   3.249   3.220   3.113   3.089   2.992   3.085   3.085   3.187   3.183   3.235   3.211   3.341   3.295   3.301   3.255   3.311   3.235   3.366   3.434   3.266   3.407   3.438   3.354   3.218   3.073   3.282   3.248   3.302   3.337
    86.71    3.599   3.482   3.545   3.415   3.451   3.320   3.210   3.150   3.132   3.161   3.079   3.077   3.194   3.190   3.123   3.209   3.241   3.156   3.359   3.256   3.281   3.315   3.400   3.405   3.345   3.449   3.203   3.381   3.385   3.407   3.309   3.142   3.213   3.254   3.271   3.389
    78.14    3.375   3.619   3.804   3.440   3.227   3.319   3.218   3.276   3.213   3.149   3.175   3.159   3.161   3.281   3.282   3.074   2.886   3.209   3.168   3.168   3.362   3.405   3.284   3.345   3.310   3.318   3.197   3.204   3.329   3.219   3.299   3.229   3.256   3.482   3.341   3.486
    69.57    3.534   3.546   3.714   3.496   3.421   3.417   3.347   3.316   3.133   3.103   3.181   3.168   2.917   2.979   3.052   3.018   2.982   3.106   3.174   3.138   3.313   3.172   3.189   3.375   3.344   3.161   3.149   3.216   3.363   3.229   3.294   3.464   3.348   3.456   3.447   3.541
    61.00    3.488   3.463   3.569   3.451   3.334   3.331   3.427   3.385   3.191   2.985   3.112   2.907   2.763   2.918   3.059   3.005   2.995   3.139   3.121   3.252   3.149   3.073   3.307   3.346   3.113   3.094   3.074   3.214   3.432   3.479   3.394   3.575   3.430   3.467   3.520   3.432
    52.43    3.340   3.534   3.468   3.377   3.251   3.299   3.320   3.215   3.035   3.058   3.090   2.900   2.858   2.844   3.130   3.266   3.135   3.219   3.069   3.194   3.135   3.212   3.154   3.139   3.182   3.152   3.145   3.287   3.369   3.354   3.314   3.349   3.348   3.498   3.485   3.616
    43.86    3.309   3.192   3.423   3.255   3.300   3.257   3.399   3.266   3.125   2.853   2.935   2.964   3.004   3.058   3.060   3.057   3.158   3.242   3.185   3.072   2.908   3.075   3.080   3.228   3.250   3.130   3.190   3.212   3.451   3.382   3.375   3.436   3.543   3.296   3.488   3.582
    35.29    3.329   3.166   3.227   3.385   3.330   3.097   3.408   3.359   3.316   2.906   3.078   3.012   2.975   3.186   3.139   3.427   3.309   3.363   3.401   3.338   3.126   3.212   3.329   3.428   3.218   3.033   3.149   3.385   3.261   3.334   3.283   3.500   3.399   3.411   3.398   3.313
    26.71    3.376   3.305   3.427   3.446   3.365   3.238   3.337   3.235   3.282   3.291   3.179   3.116   3.138   3.396   3.329   3.349   3.436   3.373   3.524   3.357   3.236   3.254   3.327   3.207   3.253   3.204   3.170   3.343   3.325   3.474   3.373   3.494   3.526   3.503   3.279   3.462
    18.14    3.424   3.299   3.335   3.566   3.331   3.352   3.228   3.274   3.316   3.269   3.270   3.111   3.053   3.197   3.395   3.331   3.362   3.445   3.635   3.545   3.443   3.225   3.242   3.297   3.263   3.253   3.383   3.548   3.306   3.308   3.342   3.526   3.653   3.504   3.437   3.362
     9.57    3.674   3.365   3.475   3.433   3.493   3.305   3.350   3.374   3.333   3.261   3.372   3.132   3.055   3.089   3.189   3.413   3.460   3.530   3.530   3.660   3.598   3.461   3.365   3.455   3.344   3.424   3.457   3.503   3.365   3.389   3.517   3.501   3.657   3.557   3.503   3.573
     1.00    3.461   3.398   3.402   3.432   3.471   3.364   3.480   3.487   3.344   3.519   3.296   3.240   3.185   3.115   3.061   3.159   3.401   3.509   3.574   3.653   3.509   3.382   3.444   3.377   3.214   3.460   3.464   3.487   3.439   3.502   3.492   3.695   3.513   3.530   3.661   3.528

   Height   Standard deviation at grid points for the v component:
   301.00    3.467   3.467   3.467   3.467   3.467   3.467   3.467   3.467   3.467   3.467   3.467   3.467   3.467   3.467   3.467   3.467   3.467   3.467   3.467   3.467   3.467   3.467   3.467   3.467   3.467   3.467   3.467   3.467   3.467   3.467   3.467   3.467   3.467   3.467   3.467   3.467
   292.43    3.467   3.467   3.467   3.467   3.467   3.467   3.467   3.467   3.467   3.467   3.467   3.467   3.467   3.467   3.467   3.467   3.467   3.467   3.467   3.467   3.467   3.467   3.467   3.467   3.467   3.467   3.467   3.467   3.467   3.467   3.467   3.467   3.467   3.467   3.467   3.467
   283.86    3.467   3.467   3.467   3.467   3.467   3.467   3.467   3.467   3.467   3.467   3.467   3.467   3.467   3.467   3.467   3.467   3.467   3.467   3.467   3.467   3.467   3.467   3.467   3.467   3.467   3.467   3.467   3.467   3.467   3.467   3.467   3.467   3.467   3.467   3.467   3.467
   275.29    3.467   3.467   3.467   3.467   3.467   3.467   3.467   3.467   3.467   3.467   3.467   3.467   3.467   3.467   3.467   3.467   3.467   3.467   3.467   3.467   3.467   3.467   3.467   3.467   3.467   3.467   3.467   3.467   3.467   3.467   3.467   3.467   3.467   3.467   3.467   3.467
   266.71    3.467   3.467   3.467   3.467   3.467   3.467   3.467   3.467   3.467   3.467   3.467   3.467   3.467   3.467   3.467   3.467   3.467   3.467   3.467   3.467   3.467   3.467   3.467   3.467   3.467   3.467   3.467   3.467   3.467   3.467   3.467   3.467   3.467   3.467   3.467   3.467
   258.14    3.467   3.467   3.467   3.467   3.467   3.467   3.467   3.467   3.467   3.467   3.467   3.467   3.467   3.467   3.467   3.467   3.467   3.467   3.467   3.467   3.467   3.467   3.467   3.467   3.467   3.467   3.467   3.467   3.467   3.467   3.467   3.467   3.467   3.467   3.467   3.467
   249.57    3.467   3.467   3.467   3.467   3.467   3.467   3.467   3.467   3.467   3.467   3.467   3.467   3.467   3.467   3.467   3.467   3.467   3.467   3.467   3.467   3.467   3.467   3.467   3.467   3.467   3.467   3.467   3.467   3.467   3.467   3.467   3.467   3.467   3.467   3.467   3.467
   241.00    3.467   3.467   3.467   3.467   3.467   3.467   3.467   3.467   3.467   3.467   3.467   3.467   3.467   3.467   3.467   3.467   3.467   3.467   3.467   3.467   3.467   3.467   3.467   3.467   3.467   3.467   3.467   3.467   3.467   3.467   3.467   3.467   3.467   3.467   3.467   3.467
   232.43    3.467   3.467   3.467   3.467   3.467   3.467   3.467   3.467   3.467   3.467   3.467   3.467   3.467   3.467   3.467   3.467   3.467   3.467   3.467   3.467   3.467   3.467   3.467   3.467   3.467   3.467   3.467   3.467   3.467   3.467   3.467   3.467   3.467   3.467   3.467   3.467
   223.86    3.467   3.467   3.467   3.467   3.467   3.467   3.467   3.467   3.467   3.467   3.467   3.467   3.467   3.467   3.467   3.467   3.467   3.467   3.467   3.467   3.467   3.467   3.467   3.467   3.467   3.467   3.467   3.467   3.467   3.467   3.467   3.467   3.467   3.467   3.467   3.467
   215.29    3.467   3.467   3.467   3.467   3.467   3.467   3.467   3.467   3.467   3.467   3.467   3.467   3.467   3.467   3.467   3.467   3.467   3.467   3.467   3.467   3.467   3.467   3.467   3.467   3.467   3.467   3.467   3.467   3.467   3.467   3.467   3.467   3.467   3.467   3.467   3.467
   206.71    3.467   3.467   3.467   3.467   3.467   3.467   3.467   3.467   3.467   3.467   3.467   3.467   3.467   3.467   3.467   3.467   3.467   3.467   3.467   3.467   3.467   3.467   3.467   3.467   3.467   3.467   3.467   3.467   3.467   3.467   3.467   3.467   3.467   3.467   3.467   3.467
   198.14    3.467   3.467   3.467   3.467   3.467   3.467   3.467   3.467   3.467   3.467   3.467   3.467   3.467   3.467   3.467   3.467   3.467   3.467   3.467   3.467   3.467   3.467   3.467   3.467   3.467   3.467   3.467   3.467   3.467   3.467   3.467   3.467   3.467   3.467   3.467   3.467
   189.57    3.467   3.467   3.467   3.467   3.467   3.467   3.467   3.467   3.467   3.467   3.467   3.467   3.467   3.467   3.467   3.467   3.467   3.467   3.467   3.467   3.467   3.467   3.467   3.467   3.467   3.467   3.467   3.467   3.467   3.467   3.467   3.467   3.467   3.467   3.467   3.467
   181.00    3.467   3.467   3.467   3.467   3.467   3.467   3.467   3.467   3.467   3.467   3.467   3.467   3.467   3.467   3.467   3.467   3.467   3.467   3.467   3.467   3.467   3.467   3.467   3.467   3.467   3.467   3.467   3.467   3.467   3.467   3.467   3.467   3.467   3.467   3.467   3.467
   172.43    3.467   3.467   3.467   3.467   3.467   3.467   3.467   3.467   3.467   3.467   3.467   3.467   3.467   3.467   3.467   3.467   3.467   3.467   3.467   3.467   3.467   3.467   3.467   3.467   3.467   3.467   3.467   3.467   3.467   3.467   3.467   3.467   3.467   3.467   3.467   3.467
   163.86    3.467   3.467   3.467   3.467   3.467   3.467   3.467   3.467   3.467   3.467   3.467   3.467   3.467   3.467   3.467   3.467   3.467   3.467   3.467   3.467   3.467   3.467   3.467   3.467   3.467   3.467   3.467   3.467   3.467   3.467   3.467   3.467   3.467   3.467   3.467   3.467
   155.29    3.467   3.467   3.467   3.467   3.467   3.467   3.467   3.467   3.467   3.467   3.467   3.467   3.467   3.467   3.467   3.467   3.467   3.467   3.467   3.467   3.467   3.467   3.467   3.467   3.467   3.467   3.467   3.467   3.467   3.467   3.467   3.467   3.467   3.467   3.467   3.467
   146.71    3.467   3.467   3.467   3.467   3.467   3.467   3.467   3.467   3.467   3.467   3.467   3.467   3.467   3.467   3.467   3.467   3.467   3.467   3.467   3.467   3.467   3.467   3.467   3.467   3.467   3.467   3.467   3.467   3.467   3.467   3.467   3.467   3.467   3.467   3.467   3.467
   138.14    3.467   3.467   3.467   3.467   3.467   3.467   3.467   3.467   3.467   3.467   3.467   3.467   3.467   3.467   3.467   3.467   3.467   3.467   3.467   3.467   3.467   3.467   3.467   3.467   3.467   3.467   3.467   3.467   3.467   3.467   3.467   3.467   3.467   3.467   3.467   3.467
   129.57    3.467   3.467   3.467   3.467   3.467   3.467   3.467   3.467   3.467   3.467   3.467   3.467   3.467   3.467   3.467   3.467   3.467   3.467   3.467   3.467   3.467   3.467   3.467   3.467   3.467   3.467   3.467   3.467   3.467   3.467   3.467   3.467   3.467   3.467   3.467   3.467
   121.00    3.467   3.467   3.467   3.467   3.467   3.467   3.467   3.467   3.467   3.467   3.467   3.467   3.467   3.467   3.467   3.467   3.467   3.467   3.467   3.467   3.467   3.467   3.467   3.467   3.467   3.467   3.467   3.467   3.467   3.467   3.467   3.467   3.467   3.467   3.467   3.467
   112.43    3.467   3.467   3.467   3.467   3.467   3.467   3.467   3.467   3.467   3.467   3.467   3.467   3.467   3.467   3.467   3.467   3.467   3.467   3.467   3.467   3.467   3.467   3.467   3.467   3.467   3.467   3.467   3.467   3.467   3.467   3.467   3.467   3.467   3.467   3.467   3.467
   103.86    3.467   3.467   3.467   3.467   3.467   3.467   3.467   3.467   3.467   3.467   3.467   3.467   3.467   3.467   3.467   3.467   3.467   3.467   3.467   3.467   3.467   3.467   3.467   3.467   3.467   3.467   3.467   3.467   3.467   3.467   3.467   3.467   3.467   3.467   3.467   3.467
    95.29    3.467   3.467   3.467   3.467   3.467   3.467   3.467   3.467   3.467   3.467   3.467   3.467   3.467   3.467   3.467   3.467   3.467   3.467   3.467   3.467   3.467   3.467   3.467   3.467   3.467   3.467   3.467   3.467   3.467   3.467   3.467   3.467   3.467   3.467   3.467   3.467
    86.71    3.467   3.467   3.467   3.467   3.467   3.467   3.467   3.467   3.467   3.467   3.467   3.467   3.467   3.467   3.467   3.467   3.467   3.467   3.467   3.467   3.467   3.467   3.467   3.467   3.467   3.467   3.467   3.467   3.467   3.467   3.467   3.467   3.467   3.467   3.467   3.467
    78.14    3.467   3.467   3.467   3.467   3.467   3.467   3.467   3.467   3.467   3.467   3.467   3.467   3.467   3.467   3.467   3.467   3.467   3.467   3.467   3.467   3.467   3.467   3.467   3.467   3.467   3.467   3.467   3.467   3.467   3.467   3.467   3.467   3.467   3.467   3.467   3.467
    69.57    3.467   3.467   3.467   3.467   3.467   3.467   3.467   3.467   3.467   3.467   3.467   3.467   3.467   3.467   3.467   3.467   3.467   3.467   3.467   3.467   3.467   3.467   3.467   3.467   3.467   3.467   3.467   3.467   3.467   3.467   3.467   3.467   3.467   3.467   3.467   3.467
    61.00    3.467   3.467   3.467   3.467   3.467   3.467   3.467   3.467   3.467   3.467   3.467   3.467   3.467   3.467   3.467   3.467   3.467   3.467   3.467   3.467   3.467   3.467   3.467   3.467   3.467   3.467   3.467   3.467   3.467   3.467   3.467   3.467   3.467   3.467   3.467   3.467
    52.43    3.467   3.467   3.467   3.467   3.467   3.467   3.467   3.467   3.467   3.467   3.467   3.467   3.467   3.467   3.467   3.467   3.467   3.467   3.467   3.467   3.467   3.467   3.467   3.467   3.467   3.467   3.467   3.467   3.467   3.467   3.467   3.467   3.467   3.467   3.467   3.467
    43.86    3.467   3.467   3.467   3.467   3.467   3.467   3.467   3.467   3.467   3.467   3.467   3.467   3.467   3.467   3.467   3.467   3.467   3.467   3.467   3.467   3.467   3.467   3.467   3.467   3.467   3.467   3.467   3.467   3.467   3.467   3.467   3.467   3.467   3.467   3.467   3.467
    35.29    3.467   3.467   3.467   3.467   3.467   3.467   3.467   3.467   3.467   3.467   3.467   3.467   3.467   3.467   3.467   3.467   3.467   3.467   3.467   3.467   3.467   3.467   3.467   3.467   3.467   3.467   3.467   3.467   3.467   3.467   3.467   3.467   3.467   3.467   3.467   3.467
    26.71    3.467   3.467   3.467   3.467   3.467   3.467   3.467   3.467   3.467   3.467   3.467   3.467   3.467   3.467   3.467   3.467   3.467   3.467   3.467   3.467   3.467   3.467   3.467   3.467   3.467   3.467   3.467   3.467   3.467   3.467   3.467   3.467   3.467   3.467   3.467   3.467
    18.14    3.467   3.467   3.467   3.467   3.467   3.467   3.467   3.467   3.467   3.467   3.467   3.467   3.467   3.467   3.467   3.467   3.467   3.467   3.467   3.467   3.467   3.467   3.467   3.467   3.467   3.467   3.467   3.467   3.467   3.467   3.467   3.467   3.467   3.467   3.467   3.467
     9.57    3.467   3.467   3.467   3.467   3.467   3.467   3.467   3.467   3.467   3.467   3.467   3.467   3.467   3.467   3.467   3.467   3.467   3.467   3.467   3.467   3.467   3.467   3.467   3.467   3.467   3.467   3.467   3.467   3.467   3.467   3.467   3.467   3.467   3.467   3.467   3.467
     1.00    3.467   3.467   3.467   3.467   3.467   3.467   3.467   3.467   3.467   3.467   3.467   3.467   3.467   3.467   3.467   3.467   3.467   3.467   3.467   3.467   3.467   3.467   3.467   3.467   3.467   3.467   3.467   3.467   3.467   3.467   3.467   3.467   3.467   3.467   3.467   3.467

   Height   Standard deviation at grid points for the w component:
   301.00    3.467   3.467   3.467   3.467   3.467   3.467   3.467   3.467   3.467   3.467   3.467   3.467   3.467   3.467   3.467   3.467   3.467   3.467   3.467   3.467   3.467   3.467   3.467   3.467   3.467   3.467   3.467   3.467   3.467   3.467   3.467   3.467   3.467   3.467   3.467   3.467
   292.43    3.467   3.467   3.467   3.467   3.467   3.467   3.467   3.467   3.467   3.467   3.467   3.467   3.467   3.467   3.467   3.467   3.467   3.467   3.467   3.467   3.467   3.467   3.467   3.467   3.467   3.467   3.467   3.467   3.467   3.467   3.467   3.467   3.467   3.467   3.467   3.467
   283.86    3.467   3.467   3.467   3.467   3.467   3.467   3.467   3.467   3.467   3.467   3.467   3.467   3.467   3.467   3.467   3.467   3.467   3.467   3.467   3.467   3.467   3.467   3.467   3.467   3.467   3.467   3.467   3.467   3.467   3.467   3.467   3.467   3.467   3.467   3.467   3.467
   275.29    3.467   3.467   3.467   3.467   3.467   3.467   3.467   3.467   3.467   3.467   3.467   3.467   3.467   3.467   3.467   3.467   3.467   3.467   3.467   3.467   3.467   3.467   3.467   3.467   3.467   3.467   3.467   3.467   3.467   3.467   3.467   3.467   3.467   3.467   3.467   3.467
   266.71    3.467   3.467   3.467   3.467   3.467   3.467   3.467   3.467   3.467   3.467   3.467   3.467   3.467   3.467   3.467   3.467   3.467   3.467   3.467   3.467   3.467   3.467   3.467   3.467   3.467   3.467   3.467   3.467   3.467   3.467   3.467   3.467   3.467   3.467   3.467   3.467
   258.14    3.467   3.467   3.467   3.467   3.467   3.467   3.467   3.467   3.467   3.467   3.467   3.467   3.467   3.467   3.467   3.467   3.467   3.467   3.467   3.467   3.467   3.467   3.467   3.467   3.467   3.467   3.467   3.467   3.467   3.467   3.467   3.467   3.467   3.467   3.467   3.467
   249.57    3.467   3.467   3.467   3.467   3.467   3.467   3.467   3.467   3.467   3.467   3.467   3.467   3.467   3.467   3.467   3.467   3.467   3.467   3.467   3.467   3.467   3.467   3.467   3.467   3.467   3.467   3.467   3.467   3.467   3.467   3.467   3.467   3.467   3.467   3.467   3.467
   241.00    3.467   3.467   3.467   3.467   3.467   3.467   3.467   3.467   3.467   3.467   3.467   3.467   3.467   3.467   3.467   3.467   3.467   3.467   3.467   3.467   3.467   3.467   3.467   3.467   3.467   3.467   3.467   3.467   3.467   3.467   3.467   3.467   3.467   3.467   3.467   3.467
   232.43    3.467   3.467   3.467   3.467   3.467   3.467   3.467   3.467   3.467   3.467   3.467   3.467   3.467   3.467   3.467   3.467   3.467   3.467   3.467   3.467   3.467   3.467   3.467   3.467   3.467   3.467   3.467   3.467   3.467   3.467   3.467   3.467   3.467   3.467   3.467   3.467
   223.86    3.467   3.467   3.467   3.467   3.467   3.467   3.467   3.467   3.467   3.467   3.467   3.467   3.467   3.467   3.467   3.467   3.467   3.467   3.467   3.467   3.467   3.467   3.467   3.467   3.467   3.467   3.467   3.467   3.467   3.467   3.467   3.467   3.467   3.467   3.467   3.467
   215.29    3.467   3.467   3.467   3.467   3.467   3.467   3.467   3.467   3.467   3.467   3.467   3.467   3.467   3.467   3.467   3.467   3.467   3.467   3.467   3.467   3.467   3.467   3.467   3.467   3.467   3.467   3.467   3.467   3.467   3.467   3.467   3.467   3.467   3.467   3.467   3.467
   206.71    3.467   3.467   3.467   3.467   3.467   3.467   3.467   3.467   3.467   3.467   3.467   3.467   3.467   3.467   3.467   3.467   3.467   3.467   3.467   3.467   3.467   3.467   3.467   3.467   3.467   3.467   3.467   3.467   3.467   3.467   3.467   3.467   3.467   3.467   3.467   3.467
   198.14    3.467   3.467   3.467   3.467   3.467   3.467   3.467   3.467   3.467   3.467   3.467   3.467   3.467   3.467   3.467   3.467   3.467   3.467   3.467   3.467   3.467   3.467   3.467   3.467   3.467   3.467   3.467   3.467   3.467   3.467   3.467   3.467   3.467   3.467   3.467   3.467
   189.57    3.467   3.467   3.467   3.467   3.467   3.467   3.467   3.467   3.467   3.467   3.467   3.467   3.467   3.467   3.467   3.467   3.467   3.467   3.467   3.467   3.467   3.467   3.467   3.467   3.467   3.467   3.467   3.467   3.467   3.467   3.467   3.467   3.467   3.467   3.467   3.467
   181.00    3.467   3.467   3.467   3.467   3.467   3.467   3.467   3.467   3.467   3.467   3.467   3.467   3.467   3.467   3.467   3.467   3.467   3.467   3.467   3.467   3.467   3.467   3.467   3.467   3.467   3.467   3.467   3.467   3.467   3.467   3.467   3.467   3.467   3.467   3.467   3.467
   172.43    3.467   3.467   3.467   3.467   3.467   3.467   3.467   3.467   3.467   3.467   3.467   3.467   3.467   3.467   3.467   3.467   3.467   3.467   3.467   3.467   3.467   3.467   3.467   3.467   3.467   3.467   3.467   3.467   3.467   3.467   3.467   3.467   3.467   3.467   3.467   3.467
   163.86    3.467   3.467   3.467   3.467   3.467   3.467   3.467   3.467   3.467   3.467   3.467   3.467   3.467   3.467   3.467   3.467   3.467   3.467   3.467   3.467   3.467   3.467   3.467   3.467   3.467   3.467   3.467   3.467   3.467   3.467   3.467   3.467   3.467   3.467   3.467   3.467
   155.29    3.467   3.467   3.467   3.467   3.467   3.467   3.467   3.467   3.467   3.467   3.467   3.467   3.467   3.467   3.467   3.467   3.467   3.467   3.467   3.467   3.467   3.467   3.467   3.467   3.467   3.467   3.467   3.467   3.467   3.467   3.467   3.467   3.467   3.467   3.467   3.467
   146.71    3.467   3.467   3.467   3.467   3.467   3.467   3.467   3.467   3.467   3.467   3.467   3.467   3.467   3.467   3.467   3.467   3.467   3.467   3.467   3.467   3.467   3.467   3.467   3.467   3.467   3.467   3.467   3.467   3.467   3.467   3.467   3.467   3.467   3.467   3.467   3.467
   138.14    3.467   3.467   3.467   3.467   3.467   3.467   3.467   3.467   3.467   3.467   3.467   3.467   3.467   3.467   3.467   3.467   3.467   3.467   3.467   3.467   3.467   3.467   3.467   3.467   3.467   3.467   3.467   3.467   3.467   3.467   3.467   3.467   3.467   3.467   3.467   3.467
   129.57    3.467   3.467   3.467   3.467   3.467   3.467   3.467   3.467   3.467   3.467   3.467   3.467   3.467   3.467   3.467   3.467   3.467   3.467   3.467   3.467   3.467   3.467   3.467   3.467   3.467   3.467   3.467   3.467   3.467   3.467   3.467   3.467   3.467   3.467   3.467   3.467
   121.00    3.467   3.467   3.467   3.467   3.467   3.467   3.467   3.467   3.467   3.467   3.467   3.467   3.467   3.467   3.467   3.467   3.467   3.467   3.467   3.467   3.467   3.467   3.467   3.467   3.467   3.467   3.467   3.467   3.467   3.467   3.467   3.467   3.467   3.467   3.467   3.467
   112.43    3.467   3.467   3.467   3.467   3.467   3.467   3.467   3.467   3.467   3.467   3.467   3.467   3.467   3.467   3.467   3.467   3.467   3.467   3.467   3.467   3.467   3.467   3.467   3.467   3.467   3.467   3.467   3.467   3.467   3.467   3.467   3.467   3.467   3.467   3.467   3.467
   103.86    3.467   3.467   3.467   3.467   3.467   3.467   3.467   3.467   3.467   3.467   3.467   3.467   3.467   3.467   3.467   3.467   3.467   3.467   3.467   3.467   3.467   3.467   3.467   3.467   3.467   3.467   3.467   3.467   3.467   3.467   3.467   3.467   3.467   3.467   3.467   3.467
    95.29    3.467   3.467   3.467   3.467   3.467   3.467   3.467   3.467   3.467   3.467   3.467   3.467   3.467   3.467   3.467   3.467   3.467   3.467   3.467   3.467   3.467   3.467   3.467   3.467   3.467   3.467   3.467   3.467   3.467   3.467   3.467   3.467   3.467   3.467   3.467   3.467
    86.71    3.467   3.467   3.467   3.467   3.467   3.467   3.467   3.467   3.467   3.467   3.467   3.467   3.467   3.467   3.467   3.467   3.467   3.467   3.467   3.467   3.467   3.467   3.467   3.467   3.467   3.467   3.467   3.467   3.467   3.467   3.467   3.467   3.467   3.467   3.467   3.467
    78.14    3.467   3.467   3.467   3.467   3.467   3.467   3.467   3.467   3.467   3.467   3.467   3.467   3.467   3.467   3.467   3.467   3.467   3.467   3.467   3.467   3.467   3.467   3.467   3.467   3.467   3.467   3.467   3.467   3.467   3.467   3.467   3.467   3.467   3.467   3.467   3.467
    69.57    3.467   3.467   3.467   3.467   3.467   3.467   3.467   3.467   3.467   3.467   3.467   3.467   3.467   3.467   3.467   3.467   3.467   3.467   3.467   3.467   3.467   3.467   3.467   3.467   3.467   3.467   3.467   3.467   3.467   3.467   3.467   3.467   3.467   3.467   3.467   3.467
    61.00    3.467   3.467   3.467   3.467   3.467   3.467   3.467   3.467   3.467   3.467   3.467   3.467   3.467   3.467   3.467   3.467   3.467   3.467   3.467   3.467   3.467   3.467   3.467   3.467   3.467   3.467   3.467   3.467   3.467   3.467   3.467   3.467   3.467   3.467   3.467   3.467
    52.43    3.467   3.467   3.467   3.467   3.467   3.467   3.467   3.467   3.467   3.467   3.467   3.467   3.467   3.467   3.467   3.467   3.467   3.467   3.467   3.467   3.467   3.467   3.467   3.467   3.467   3.467   3.467   3.467   3.467   3.467   3.467   3.467   3.467   3.467   3.467   3.467
    43.86    3.467   3.467   3.467   3.467   3.467   3.467   3.467   3.467   3.467   3.467   3.467   3.467   3.467   3.467   3.467   3.467   3.467   3.467   3.467   3.467   3.467   3.467   3.467   3.467   3.467   3.467   3.467   3.467   3.467   3.467   3.467   3.467   3.467   3.467   3.467   3.467
    35.29    3.467   3.467   3.467   3.467   3.467   3.467   3.467   3.467   3.467   3.467   3.467   3.467   3.467   3.467   3.467   3.467   3.467   3.467   3.467   3.467   3.467   3.467   3.467   3.467   3.467   3.467   3.467   3.467   3.467   3.467   3.467   3.467   3.467   3.467   3.467   3.467
    26.71    3.467   3.467   3.467   3.467   3.467   3.467   3.467   3.467   3.467   3.467   3.467   3.467   3.467   3.467   3.467   3.467   3.467   3.467   3.467   3.467   3.467   3.467   3.467   3.467   3.467   3.467   3.467   3.467   3.467   3.467   3.467   3.467   3.467   3.467   3.467   3.467
    18.14    3.467   3.467   3.467   3.467   3.467   3.467   3.467   3.467   3.467   3.467   3.467   3.467   3.467   3.467   3.467   3.467   3.467   3.467   3.467   3.467   3.467   3.467   3.467   3.467   3.467   3.467   3.467   3.467   3.467   3.467   3.467   3.467   3.467   3.467   3.467   3.467
     9.57    3.467   3.467   3.467   3.467   3.467   3.467   3.467   3.467   3.467   3.467   3.467   3.467   3.467   3.467   3.467   3.467   3.467   3.467   3.467   3.467   3.467   3.467   3.467   3.467   3.467   3.467   3.467   3.467   3.467   3.467   3.467   3.467   3.467   3.467   3.467   3.467
     1.00    3.467   3.467   3.467   3.467   3.467   3.467   3.467   3.467   3.467   3.467   3.467   3.467   3.467   3.467   3.467   3.467   3.467   3.467   3.467   3.467   3.467   3.467   3.467   3.467   3.467   3.467   3.467   3.467   3.467   3.467   3.467   3.467   3.467   3.467   3.467   3.467

   Mean standard deviation across all grid points:
      u component:    3.273 m/s
      v component:    3.467 m/s
      w component:    3.467 m/s


U-component (X) statistics from the interpolated hub point:

   Mean =  21.9408 m/s
   TI   =  12.7558 %


Normalizing Parameters for Binary Data (approximate statistics):

   UBar  =  21.9422 m/s
   TI(u) =  14.3182 %
   TI(v) =  15.7984 %
   TI(w) =  15.7984 %

   Height Offset =   0.0000 m
   Grid Base     =   1.0000 m

Creating a PERIODIC output file.


Processing complete.  18.203 CPU seconds used.
