
This summary file was generated by TurbSim (v2.00.07a-bjj, 14-Jun-2016) on 03-Nov-2023 at 03:21:07.


Runtime Options:

      2101  Random seed #1
    RANLUX  Type of random number generator
         F  Output binary HH turbulence parameters?
         F  Output formatted turbulence parameters?
         F  Output AeroDyn HH files?
         F  Output AeroDyn FF files?
         T  Output BLADED FF files?
         F  Output tower data?
         F  Output formatted FF files?
         F  Output coherent turbulence time step file?
         T  Clockwise rotation when looking downwind?
 0 -  NONE  IEC turbulence models scaled to exact specified standard deviation


Turbine/Model Specifications:

        36  Vertical grid-point matrix dimension
        36  Horizontal grid-point matrix dimension
     0.100  Time step [seconds]
   660.000  Analysis time [seconds]
   660.000  Usable output time [seconds]
   151.000  Hub height [m]
   300.000  Grid height [m]
   300.000  Grid width [m]
     0.000  Vertical flow angle [degrees]
     0.000  Horizontal flow angle [degrees]


Meteorological Boundary Conditions:

    IECVKM  IEC von Karman spectral model
         1  IEC standard: IEC 61400-1 Ed. 3: 2005
         A  IEC turbulence characteristic
       NTM  IEC Normal Turbulence Model
       N/A  IEC Extreme Turbulence Model (ETM) "c" parameter [m/s]
       PL   Wind profile type
   153.000  Reference height [m]
    11.000  Reference wind speed [m/s]
       N/A  Jet height [m]
     0.200  Power law exponent
     0.030  Surface roughness length [m]


Non-IEC Meteorological Boundary Conditions:

       N/A  Site latitude [degrees]
       N/A  Gradient Richardson number
       N/A  Friction or shear velocity [m/s]
       N/A  Mixing layer depth [m]
       N/A  Mean hub u'w' Reynolds stress
       N/A  Mean hub u'v' Reynolds stress
       N/A  Mean hub v'w' Reynolds stress


Spatial Coherence Models:

       IEC  u-component coherence model
      NONE  v-component coherence model
      NONE  w-component coherence model
(   12.000, 0.353E-03)  u-component coherence parameters
                   N/A  v-component coherence parameters
                   N/A  w-component coherence parameters
       N/A  Coherence exponent


You have requested that the following file(s) be generated:

   G:\2023\OpenWECDV1.0.0_x64\BaseLIne\wind\WindL_V_11_seed_2101.wnd (AeroDyn/BLADED full-field wnd file)


Turbulence Simulation Scaling Parameter Summary:

   Turbulence model used                            =  IEC von Karman
   Turbulence characteristic                        =  A
   IEC turbulence type                              =  Normal Turbulence Model
   IEC standard                                     =  IEC 61400-1 Ed. 3: 2005
   Mean wind speed at hub height                    =   10.971 m/s
   Expected value of turbulence intensity at 15 m/s =   16.000%
   Characteristic value of standard deviation       =    2.213 m/s
   Turbulence scale                                 =   42.000 m
   Isotropic integral scale                         =  147.000 m
   Characteristic value of hub turbulence intensity =   20.167%
   Gradient Richardson number                       =    0.000

   Wind profile type                                =  Power law
   Power law exponent                               =    0.200
   Mean shear across rotor disk                     =    0.029 (m/s)/m
   Assumed rotor diameter                           =  300.000 m
   Surface roughness length                         =    0.030 m

   Nyquist frequency of turbulent wind field        =    5.000 Hz

   Number of time steps in the FFT                  =     6600
   Number of time steps output                      =     6600
   Number of points simulated                       =     1297


Mean Flow Angles:

   Vertical   =   0.0 degrees
   Horizontal =   0.0 degrees

Mean Wind Speed Profile:

   Height    Wind Speed   Horizontal Angle  Vertical Angle  U-comp (X)   V-comp (Y)   W-comp (Z)
     (m)        (m/s)         (degrees)       (degrees)       (m/s)        (m/s)        (m/s)   
   ------    ----------   ----------------  --------------  ----------   ----------   ----------
    301.0       12.59            0.00            0.00         12.59         0.00         0.00
    292.4       12.52            0.00            0.00         12.52         0.00         0.00
    283.9       12.45            0.00            0.00         12.45         0.00         0.00
    275.3       12.37            0.00            0.00         12.37         0.00         0.00
    266.7       12.29            0.00            0.00         12.29         0.00         0.00
    258.1       12.21            0.00            0.00         12.21         0.00         0.00
    249.6       12.13            0.00            0.00         12.13         0.00         0.00
    241.0       12.05            0.00            0.00         12.05         0.00         0.00
    232.4       11.96            0.00            0.00         11.96         0.00         0.00
    223.9       11.87            0.00            0.00         11.87         0.00         0.00
    215.3       11.78            0.00            0.00         11.78         0.00         0.00
    206.7       11.68            0.00            0.00         11.68         0.00         0.00
    198.1       11.58            0.00            0.00         11.58         0.00         0.00
    189.6       11.48            0.00            0.00         11.48         0.00         0.00
    181.0       11.38            0.00            0.00         11.38         0.00         0.00
    172.4       11.27            0.00            0.00         11.27         0.00         0.00
    163.9       11.15            0.00            0.00         11.15         0.00         0.00
    155.3       11.03            0.00            0.00         11.03         0.00         0.00
    151.0       10.97            0.00            0.00         10.97         0.00         0.00
    146.7       10.91            0.00            0.00         10.91         0.00         0.00
    138.1       10.78            0.00            0.00         10.78         0.00         0.00
    129.6       10.64            0.00            0.00         10.64         0.00         0.00
    121.0       10.50            0.00            0.00         10.50         0.00         0.00
    112.4       10.34            0.00            0.00         10.34         0.00         0.00
    103.9       10.18            0.00            0.00         10.18         0.00         0.00
     95.3       10.01            0.00            0.00         10.01         0.00         0.00
     86.7        9.82            0.00            0.00          9.82         0.00         0.00
     78.1        9.62            0.00            0.00          9.62         0.00         0.00
     69.6        9.40            0.00            0.00          9.40         0.00         0.00
     61.0        9.15            0.00            0.00          9.15         0.00         0.00
     52.4        8.88            0.00            0.00          8.88         0.00         0.00
     43.9        8.57            0.00            0.00          8.57         0.00         0.00
     35.3        8.20            0.00            0.00          8.20         0.00         0.00
     26.7        7.76            0.00            0.00          7.76         0.00         0.00
     18.1        7.18            0.00            0.00          7.18         0.00         0.00
      9.6        6.32            0.00            0.00          6.32         0.00         0.00
      1.0        4.02            0.00            0.00          4.02         0.00         0.00


Harvested Random Seeds after Generation of the Random Numbers:

    119307688 K 1
            0 K 2


Hub-Height Simulated Turbulence Statistical Summary:

   Type of Wind        Min (m/s)   Mean (m/s)    Max (m/s)  Sigma (m/s)       TI (%)
   ----------------    ---------   ----------    ---------  -----------       ------
   Longitudinal (u)         4.64        10.97        17.61        2.358       21.497
   Lateral (v)             -6.46         0.00         6.75        2.171       19.789
   Vertical (w)            -8.29         0.00         5.69        2.171       19.789
   U component              4.64        10.97        17.61        2.358       21.497
   V component             -6.46         0.00         6.75        2.171       19.789
   W component             -8.29         0.00         5.69        2.171       19.789
   Horizontal (U&V)         4.64        11.18        17.79        2.376       21.248
   Total                    4.65        11.40        17.93        2.336       20.497

                       Min Reynolds     Mean Reynolds    Max Reynolds    Correlation
   Product             Stress (m/s)^2   Stress (m/s)^2   Stress (m/s)^2  Coefficient
   ----------------    --------------   --------------   --------------  -----------
   u'w'                    -17.655             0.529            24.193         0.103
   u'v'                    -26.155             0.494            24.194         0.096
   v'w'                    -23.290             0.514            26.354         0.109


   Friction Velocity (Ustar)  =      0.727 m/s
   Maximum Instantaneous TKE  =     37.703 (m/s)^2
   Maximum Instantaneous CTKE =     16.477 (m/s)^2


Grid Point Variance Summary:

   Y-coord -150.00 -141.43 -132.86 -124.29 -115.71 -107.14  -98.57  -90.00  -81.43  -72.86  -64.29  -55.71  -47.14  -38.57  -30.00  -21.43  -12.86   -4.29    4.29   12.86   21.43   30.00   38.57   47.14   55.71   64.29   72.86   81.43   90.00   98.57  107.14  115.71  124.29  132.86  141.43  150.00

   Height   Standard deviation at grid points for the u component:
   301.00    1.890   1.988   1.886   1.906   2.096   2.122   2.102   2.248   2.139   2.368   2.187   2.133   2.223   2.279   2.304   2.246   2.459   2.561   2.542   2.363   2.417   2.524   2.478   2.426   2.480   2.544   2.537   2.476   2.543   2.483   2.344   2.277   2.066   2.150   2.199   2.139
   292.43    1.892   1.926   1.960   1.926   2.002   2.082   2.037   2.223   2.152   2.174   2.257   2.315   2.368   2.426   2.510   2.454   2.506   2.692   2.539   2.618   2.614   2.481   2.539   2.543   2.621   2.473   2.348   2.425   2.541   2.401   2.355   2.253   2.123   2.067   2.142   2.267
   283.86    1.785   1.924   1.935   1.859   1.920   2.024   2.070   2.162   2.024   2.068   2.190   2.248   2.363   2.439   2.295   2.301   2.391   2.586   2.556   2.531   2.598   2.555   2.658   2.630   2.575   2.321   2.336   2.444   2.375   2.245   2.172   2.266   2.087   2.204   2.185   2.159
   275.29    1.913   1.863   1.878   1.935   1.863   1.890   2.020   2.053   2.000   2.056   2.040   2.284   2.371   2.481   2.383   2.303   2.344   2.513   2.505   2.476   2.480   2.558   2.571   2.618   2.416   2.354   2.347   2.341   2.382   2.340   2.104   2.201   2.226   2.257   2.332   2.329
   266.71    2.088   2.014   1.975   1.991   1.971   2.012   2.067   2.040   1.914   2.110   2.076   2.141   2.237   2.323   2.328   2.256   2.375   2.487   2.444   2.463   2.322   2.480   2.596   2.589   2.376   2.270   2.147   2.070   2.276   2.232   2.146   2.151   2.131   2.247   2.314   2.236
   258.14    2.149   2.111   2.022   1.968   2.086   1.981   1.968   2.056   2.096   1.964   2.003   2.012   2.245   2.405   2.396   2.210   2.450   2.513   2.370   2.486   2.529   2.439   2.699   2.683   2.321   2.256   2.026   2.125   2.136   2.125   2.151   2.125   2.239   2.349   2.439   2.307
   249.57    2.305   2.305   2.269   2.122   2.100   1.845   1.956   2.059   1.999   2.125   1.991   1.997   2.263   2.261   2.321   2.359   2.443   2.467   2.369   2.505   2.619   2.673   2.571   2.550   2.338   2.266   2.175   2.225   2.254   2.280   2.188   2.170   2.257   2.522   2.478   2.313
   241.00    2.395   2.373   2.346   2.148   2.066   2.038   2.084   2.113   2.071   2.174   2.250   2.136   2.195   2.211   2.342   2.343   2.434   2.398   2.524   2.585   2.501   2.388   2.354   2.356   2.322   2.259   2.177   2.298   2.240   2.243   2.403   2.401   2.409   2.438   2.484   2.455
   232.43    2.443   2.360   2.218   2.104   2.070   2.187   2.148   2.089   2.041   1.976   2.097   2.046   2.169   2.231   2.472   2.560   2.426   2.683   2.589   2.555   2.413   2.342   2.363   2.228   2.193   2.277   2.197   2.230   2.201   2.339   2.353   2.511   2.315   2.265   2.465   2.431
   223.86    2.510   2.427   2.329   2.095   2.134   2.267   2.229   1.967   2.071   2.039   2.063   2.118   2.101   2.261   2.452   2.459   2.640   2.604   2.503   2.464   2.256   2.138   2.256   2.206   2.294   2.409   2.219   2.191   2.394   2.251   2.391   2.398   2.382   2.487   2.551   2.543
   215.29    2.341   2.255   2.389   2.110   2.090   2.161   2.217   2.070   2.092   1.987   2.136   2.300   2.201   2.273   2.323   2.511   2.524   2.417   2.431   2.387   2.217   2.258   2.288   2.273   2.397   2.357   2.357   2.300   2.307   2.437   2.341   2.419   2.634   2.587   2.553   2.474
   206.71    2.207   2.166   2.184   2.088   2.046   2.079   2.163   2.226   2.197   2.072   2.089   2.201   2.263   2.236   2.105   2.432   2.358   2.386   2.520   2.408   2.265   2.276   2.318   2.322   2.386   2.291   2.269   2.354   2.293   2.477   2.484   2.434   2.565   2.595   2.567   2.476
   198.14    2.233   2.275   2.211   2.063   2.273   2.048   2.237   2.317   2.090   2.239   2.126   2.173   2.160   2.040   2.038   2.208   2.340   2.311   2.343   2.478   2.335   2.220   2.354   2.151   2.311   2.327   2.369   2.379   2.228   2.248   2.398   2.469   2.634   2.463   2.435   2.379
   189.57    2.047   2.224   2.181   2.153   2.236   2.149   2.308   2.432   2.427   2.258   2.186   2.103   2.193   2.247   2.295   2.270   2.311   2.323   2.512   2.465   2.346   2.340   2.314   2.318   2.382   2.328   2.379   2.390   2.316   2.111   2.278   2.532   2.555   2.397   2.379   2.245
   181.00    2.187   2.155   2.264   2.140   2.235   2.192   2.280   2.396   2.301   2.339   2.118   2.061   2.118   2.254   2.405   2.484   2.358   2.368   2.435   2.426   2.414   2.367   2.325   2.332   2.390   2.422   2.315   2.431   2.374   2.449   2.478   2.483   2.519   2.341   2.309   2.189
   172.43    2.167   2.207   2.404   2.306   2.287   2.238   2.324   2.378   2.487   2.339   2.205   2.210   2.168   2.250   2.322   2.460   2.406   2.321   2.374   2.402   2.448   2.554   2.402   2.551   2.385   2.360   2.534   2.474   2.456   2.300   2.438   2.389   2.388   2.491   2.362   2.091
   163.86    2.191   2.221   2.281   2.207   2.175   2.293   2.202   2.319   2.319   2.294   2.194   2.124   2.215   2.182   2.163   2.369   2.352   2.363   2.351   2.338   2.286   2.484   2.471   2.538   2.521   2.491   2.540   2.399   2.434   2.388   2.369   2.384   2.263   2.165   2.196   2.033
   155.29    2.053   2.169   2.282   2.169   2.365   2.211   2.154   2.114   2.130   2.257   2.248   2.235   2.170   2.061   2.131   2.098   2.251   2.322   2.296   2.339   2.395   2.461   2.572   2.411   2.443   2.482   2.463   2.391   2.377   2.313   2.188   2.354   2.344   2.203   2.086   2.112
   146.71    2.076   2.160   2.319   2.182   2.070   2.110   2.074   2.138   2.129   2.283   2.371   2.360   2.244   2.101   1.991   2.122   2.135   2.198   2.378   2.373   2.302   2.411   2.627   2.573   2.479   2.425   2.342   2.483   2.407   2.281   2.246   2.246   2.362   2.068   2.047   2.246
   138.14    2.067   2.032   2.068   2.251   2.075   2.057   2.172   2.231   2.240   2.362   2.366   2.277   2.302   2.138   1.966   2.000   2.050   2.151   2.233   2.478   2.388   2.512   2.539   2.443   2.474   2.349   2.401   2.322   2.414   2.379   2.251   2.315   2.206   1.988   2.006   2.019
   129.57    1.883   2.052   2.073   2.208   2.095   2.079   2.160   2.179   2.262   2.314   2.305   2.321   2.192   2.050   2.099   2.041   2.192   2.183   2.418   2.449   2.396   2.416   2.425   2.520   2.478   2.296   2.273   2.392   2.279   2.194   2.214   2.279   2.016   1.981   2.093   2.053
   121.00    2.085   2.169   2.198   2.288   2.356   2.142   2.174   2.147   2.190   2.108   2.060   2.228   2.241   2.175   2.074   2.090   2.003   2.271   2.327   2.388   2.426   2.506   2.379   2.436   2.356   2.337   2.492   2.280   2.109   2.030   2.105   2.103   1.804   2.001   2.026   2.182
   112.43    2.210   2.418   2.234   2.228   2.350   2.236   2.314   2.131   2.301   2.221   2.249   2.285   2.264   2.167   2.042   2.093   2.110   2.295   2.277   2.244   2.309   2.307   2.273   2.202   2.234   2.207   2.251   2.160   2.101   1.935   1.915   2.055   1.988   1.912   1.959   1.968
   103.86    2.307   2.426   2.385   2.240   2.230   2.280   2.123   2.256   2.192   2.301   2.267   2.111   2.117   2.093   2.087   2.060   2.144   2.274   2.333   2.209   2.185   2.192   2.229   2.350   2.243   2.300   2.227   2.015   2.078   2.043   2.104   2.111   1.992   1.889   2.059   1.919
    95.29    2.414   2.324   2.398   2.204   2.213   2.225   2.247   2.145   2.276   2.300   2.131   2.034   2.202   2.077   2.138   2.094   2.169   2.351   2.427   2.156   2.096   2.242   2.383   2.395   2.326   2.291   2.195   2.141   2.068   2.031   2.010   2.090   2.052   1.886   1.983   1.950
    86.71    2.361   2.350   2.288   2.187   2.299   2.344   2.463   2.366   2.158   2.318   2.351   2.174   2.161   2.058   2.082   1.980   2.075   2.247   2.338   2.161   2.256   2.228   2.332   2.366   2.352   2.242   2.305   2.122   1.988   2.124   2.153   2.240   2.070   1.864   1.992   1.883
    78.14    2.096   2.248   2.335   2.260   2.159   2.348   2.306   2.318   2.049   2.166   2.352   2.300   2.197   2.216   2.125   2.090   2.141   2.202   2.214   2.289   2.192   2.455   2.424   2.238   2.348   2.288   2.207   2.294   2.136   2.076   2.189   2.113   2.030   1.936   1.932   1.820
    69.57    2.166   2.097   2.227   2.232   2.155   2.166   2.326   2.253   2.311   2.175   2.267   2.326   2.221   2.261   2.332   2.325   2.120   2.134   2.237   2.230   2.345   2.363   2.351   2.171   2.218   2.268   2.387   2.303   2.284   2.242   2.336   2.266   2.095   2.140   1.834   1.971
    61.00    2.320   2.212   2.164   2.115   2.078   2.295   2.301   2.286   2.220   2.391   2.220   2.238   2.246   2.268   2.243   2.216   2.200   2.071   2.218   2.372   2.503   2.397   2.184   2.179   2.183   2.122   2.293   2.217   2.243   2.240   2.387   2.160   2.100   2.199   1.914   1.992
    52.43    2.332   2.176   2.284   2.227   2.187   2.202   2.327   2.240   2.289   2.241   2.181   2.140   2.141   2.263   2.137   2.107   2.133   2.198   2.105   2.182   2.369   2.215   2.243   2.187   2.069   1.928   2.121   2.135   2.176   2.172   2.280   2.177   2.153   2.228   2.191   2.073
    43.86    2.231   2.251   2.254   2.170   2.311   2.304   2.270   2.389   2.172   2.378   2.380   2.242   2.250   2.067   2.167   2.178   1.991   2.095   2.226   2.206   2.332   2.393   2.383   2.262   2.134   2.020   2.084   2.144   2.205   2.121   2.166   2.393   2.272   2.310   2.271   2.027
    35.29    2.220   2.251   2.229   2.181   2.146   2.204   2.266   2.354   2.495   2.562   2.411   2.157   2.167   1.976   2.073   2.009   2.067   2.058   2.069   2.012   2.151   2.203   2.403   2.271   2.296   2.047   2.030   2.146   2.069   2.017   2.072   2.217   2.240   2.266   2.300   2.045
    26.71    2.089   2.070   2.081   2.017   2.197   2.153   2.522   2.620   2.552   2.564   2.391   2.290   2.052   2.036   1.917   1.952   2.041   1.926   2.027   1.978   2.018   2.124   2.285   2.135   2.077   2.082   1.948   2.099   2.071   2.249   2.111   2.111   2.067   2.092   2.283   2.135
    18.14    2.053   1.964   1.992   2.125   2.185   2.325   2.428   2.462   2.464   2.451   2.539   2.307   2.162   1.928   1.871   1.923   1.841   1.976   1.950   2.029   1.965   1.935   2.034   2.221   2.186   2.090   2.110   1.974   2.048   2.116   2.066   1.993   2.067   2.090   2.116   2.096
     9.57    1.927   2.014   1.998   2.138   2.229   2.264   2.359   2.426   2.453   2.440   2.222   2.236   2.195   2.058   1.963   1.874   1.800   2.039   2.033   2.035   1.862   2.019   1.920   2.122   2.125   2.156   2.117   1.963   2.012   2.082   2.181   1.958   2.151   2.001   2.054   2.035
     1.00    2.154   2.107   2.183   2.339   2.423   2.285   2.198   2.312   2.277   2.365   2.083   2.108   2.041   2.061   1.983   1.961   1.962   2.004   1.873   1.844   1.889   1.982   2.031   2.094   2.177   2.082   2.108   2.004   2.125   2.209   2.135   1.920   2.040   2.224   2.104   2.088

   Height   Standard deviation at grid points for the v component:
   301.00    2.171   2.171   2.171   2.171   2.171   2.171   2.171   2.171   2.171   2.171   2.171   2.171   2.171   2.171   2.171   2.171   2.171   2.171   2.171   2.171   2.171   2.171   2.171   2.171   2.171   2.171   2.171   2.171   2.171   2.171   2.171   2.171   2.171   2.171   2.171   2.171
   292.43    2.171   2.171   2.171   2.171   2.171   2.171   2.171   2.171   2.171   2.171   2.171   2.171   2.171   2.171   2.171   2.171   2.171   2.171   2.171   2.171   2.171   2.171   2.171   2.171   2.171   2.171   2.171   2.171   2.171   2.171   2.171   2.171   2.171   2.171   2.171   2.171
   283.86    2.171   2.171   2.171   2.171   2.171   2.171   2.171   2.171   2.171   2.171   2.171   2.171   2.171   2.171   2.171   2.171   2.171   2.171   2.171   2.171   2.171   2.171   2.171   2.171   2.171   2.171   2.171   2.171   2.171   2.171   2.171   2.171   2.171   2.171   2.171   2.171
   275.29    2.171   2.171   2.171   2.171   2.171   2.171   2.171   2.171   2.171   2.171   2.171   2.171   2.171   2.171   2.171   2.171   2.171   2.171   2.171   2.171   2.171   2.171   2.171   2.171   2.171   2.171   2.171   2.171   2.171   2.171   2.171   2.171   2.171   2.171   2.171   2.171
   266.71    2.171   2.171   2.171   2.171   2.171   2.171   2.171   2.171   2.171   2.171   2.171   2.171   2.171   2.171   2.171   2.171   2.171   2.171   2.171   2.171   2.171   2.171   2.171   2.171   2.171   2.171   2.171   2.171   2.171   2.171   2.171   2.171   2.171   2.171   2.171   2.171
   258.14    2.171   2.171   2.171   2.171   2.171   2.171   2.171   2.171   2.171   2.171   2.171   2.171   2.171   2.171   2.171   2.171   2.171   2.171   2.171   2.171   2.171   2.171   2.171   2.171   2.171   2.171   2.171   2.171   2.171   2.171   2.171   2.171   2.171   2.171   2.171   2.171
   249.57    2.171   2.171   2.171   2.171   2.171   2.171   2.171   2.171   2.171   2.171   2.171   2.171   2.171   2.171   2.171   2.171   2.171   2.171   2.171   2.171   2.171   2.171   2.171   2.171   2.171   2.171   2.171   2.171   2.171   2.171   2.171   2.171   2.171   2.171   2.171   2.171
   241.00    2.171   2.171   2.171   2.171   2.171   2.171   2.171   2.171   2.171   2.171   2.171   2.171   2.171   2.171   2.171   2.171   2.171   2.171   2.171   2.171   2.171   2.171   2.171   2.171   2.171   2.171   2.171   2.171   2.171   2.171   2.171   2.171   2.171   2.171   2.171   2.171
   232.43    2.171   2.171   2.171   2.171   2.171   2.171   2.171   2.171   2.171   2.171   2.171   2.171   2.171   2.171   2.171   2.171   2.171   2.171   2.171   2.171   2.171   2.171   2.171   2.171   2.171   2.171   2.171   2.171   2.171   2.171   2.171   2.171   2.171   2.171   2.171   2.171
   223.86    2.171   2.171   2.171   2.171   2.171   2.171   2.171   2.171   2.171   2.171   2.171   2.171   2.171   2.171   2.171   2.171   2.171   2.171   2.171   2.171   2.171   2.171   2.171   2.171   2.171   2.171   2.171   2.171   2.171   2.171   2.171   2.171   2.171   2.171   2.171   2.171
   215.29    2.171   2.171   2.171   2.171   2.171   2.171   2.171   2.171   2.171   2.171   2.171   2.171   2.171   2.171   2.171   2.171   2.171   2.171   2.171   2.171   2.171   2.171   2.171   2.171   2.171   2.171   2.171   2.171   2.171   2.171   2.171   2.171   2.171   2.171   2.171   2.171
   206.71    2.171   2.171   2.171   2.171   2.171   2.171   2.171   2.171   2.171   2.171   2.171   2.171   2.171   2.171   2.171   2.171   2.171   2.171   2.171   2.171   2.171   2.171   2.171   2.171   2.171   2.171   2.171   2.171   2.171   2.171   2.171   2.171   2.171   2.171   2.171   2.171
   198.14    2.171   2.171   2.171   2.171   2.171   2.171   2.171   2.171   2.171   2.171   2.171   2.171   2.171   2.171   2.171   2.171   2.171   2.171   2.171   2.171   2.171   2.171   2.171   2.171   2.171   2.171   2.171   2.171   2.171   2.171   2.171   2.171   2.171   2.171   2.171   2.171
   189.57    2.171   2.171   2.171   2.171   2.171   2.171   2.171   2.171   2.171   2.171   2.171   2.171   2.171   2.171   2.171   2.171   2.171   2.171   2.171   2.171   2.171   2.171   2.171   2.171   2.171   2.171   2.171   2.171   2.171   2.171   2.171   2.171   2.171   2.171   2.171   2.171
   181.00    2.171   2.171   2.171   2.171   2.171   2.171   2.171   2.171   2.171   2.171   2.171   2.171   2.171   2.171   2.171   2.171   2.171   2.171   2.171   2.171   2.171   2.171   2.171   2.171   2.171   2.171   2.171   2.171   2.171   2.171   2.171   2.171   2.171   2.171   2.171   2.171
   172.43    2.171   2.171   2.171   2.171   2.171   2.171   2.171   2.171   2.171   2.171   2.171   2.171   2.171   2.171   2.171   2.171   2.171   2.171   2.171   2.171   2.171   2.171   2.171   2.171   2.171   2.171   2.171   2.171   2.171   2.171   2.171   2.171   2.171   2.171   2.171   2.171
   163.86    2.171   2.171   2.171   2.171   2.171   2.171   2.171   2.171   2.171   2.171   2.171   2.171   2.171   2.171   2.171   2.171   2.171   2.171   2.171   2.171   2.171   2.171   2.171   2.171   2.171   2.171   2.171   2.171   2.171   2.171   2.171   2.171   2.171   2.171   2.171   2.171
   155.29    2.171   2.171   2.171   2.171   2.171   2.171   2.171   2.171   2.171   2.171   2.171   2.171   2.171   2.171   2.171   2.171   2.171   2.171   2.171   2.171   2.171   2.171   2.171   2.171   2.171   2.171   2.171   2.171   2.171   2.171   2.171   2.171   2.171   2.171   2.171   2.171
   146.71    2.171   2.171   2.171   2.171   2.171   2.171   2.171   2.171   2.171   2.171   2.171   2.171   2.171   2.171   2.171   2.171   2.171   2.171   2.171   2.171   2.171   2.171   2.171   2.171   2.171   2.171   2.171   2.171   2.171   2.171   2.171   2.171   2.171   2.171   2.171   2.171
   138.14    2.171   2.171   2.171   2.171   2.171   2.171   2.171   2.171   2.171   2.171   2.171   2.171   2.171   2.171   2.171   2.171   2.171   2.171   2.171   2.171   2.171   2.171   2.171   2.171   2.171   2.171   2.171   2.171   2.171   2.171   2.171   2.171   2.171   2.171   2.171   2.171
   129.57    2.171   2.171   2.171   2.171   2.171   2.171   2.171   2.171   2.171   2.171   2.171   2.171   2.171   2.171   2.171   2.171   2.171   2.171   2.171   2.171   2.171   2.171   2.171   2.171   2.171   2.171   2.171   2.171   2.171   2.171   2.171   2.171   2.171   2.171   2.171   2.171
   121.00    2.171   2.171   2.171   2.171   2.171   2.171   2.171   2.171   2.171   2.171   2.171   2.171   2.171   2.171   2.171   2.171   2.171   2.171   2.171   2.171   2.171   2.171   2.171   2.171   2.171   2.171   2.171   2.171   2.171   2.171   2.171   2.171   2.171   2.171   2.171   2.171
   112.43    2.171   2.171   2.171   2.171   2.171   2.171   2.171   2.171   2.171   2.171   2.171   2.171   2.171   2.171   2.171   2.171   2.171   2.171   2.171   2.171   2.171   2.171   2.171   2.171   2.171   2.171   2.171   2.171   2.171   2.171   2.171   2.171   2.171   2.171   2.171   2.171
   103.86    2.171   2.171   2.171   2.171   2.171   2.171   2.171   2.171   2.171   2.171   2.171   2.171   2.171   2.171   2.171   2.171   2.171   2.171   2.171   2.171   2.171   2.171   2.171   2.171   2.171   2.171   2.171   2.171   2.171   2.171   2.171   2.171   2.171   2.171   2.171   2.171
    95.29    2.171   2.171   2.171   2.171   2.171   2.171   2.171   2.171   2.171   2.171   2.171   2.171   2.171   2.171   2.171   2.171   2.171   2.171   2.171   2.171   2.171   2.171   2.171   2.171   2.171   2.171   2.171   2.171   2.171   2.171   2.171   2.171   2.171   2.171   2.171   2.171
    86.71    2.171   2.171   2.171   2.171   2.171   2.171   2.171   2.171   2.171   2.171   2.171   2.171   2.171   2.171   2.171   2.171   2.171   2.171   2.171   2.171   2.171   2.171   2.171   2.171   2.171   2.171   2.171   2.171   2.171   2.171   2.171   2.171   2.171   2.171   2.171   2.171
    78.14    2.171   2.171   2.171   2.171   2.171   2.171   2.171   2.171   2.171   2.171   2.171   2.171   2.171   2.171   2.171   2.171   2.171   2.171   2.171   2.171   2.171   2.171   2.171   2.171   2.171   2.171   2.171   2.171   2.171   2.171   2.171   2.171   2.171   2.171   2.171   2.171
    69.57    2.171   2.171   2.171   2.171   2.171   2.171   2.171   2.171   2.171   2.171   2.171   2.171   2.171   2.171   2.171   2.171   2.171   2.171   2.171   2.171   2.171   2.171   2.171   2.171   2.171   2.171   2.171   2.171   2.171   2.171   2.171   2.171   2.171   2.171   2.171   2.171
    61.00    2.171   2.171   2.171   2.171   2.171   2.171   2.171   2.171   2.171   2.171   2.171   2.171   2.171   2.171   2.171   2.171   2.171   2.171   2.171   2.171   2.171   2.171   2.171   2.171   2.171   2.171   2.171   2.171   2.171   2.171   2.171   2.171   2.171   2.171   2.171   2.171
    52.43    2.171   2.171   2.171   2.171   2.171   2.171   2.171   2.171   2.171   2.171   2.171   2.171   2.171   2.171   2.171   2.171   2.171   2.171   2.171   2.171   2.171   2.171   2.171   2.171   2.171   2.171   2.171   2.171   2.171   2.171   2.171   2.171   2.171   2.171   2.171   2.171
    43.86    2.171   2.171   2.171   2.171   2.171   2.171   2.171   2.171   2.171   2.171   2.171   2.171   2.171   2.171   2.171   2.171   2.171   2.171   2.171   2.171   2.171   2.171   2.171   2.171   2.171   2.171   2.171   2.171   2.171   2.171   2.171   2.171   2.171   2.171   2.171   2.171
    35.29    2.171   2.171   2.171   2.171   2.171   2.171   2.171   2.171   2.171   2.171   2.171   2.171   2.171   2.171   2.171   2.171   2.171   2.171   2.171   2.171   2.171   2.171   2.171   2.171   2.171   2.171   2.171   2.171   2.171   2.171   2.171   2.171   2.171   2.171   2.171   2.171
    26.71    2.171   2.171   2.171   2.171   2.171   2.171   2.171   2.171   2.171   2.171   2.171   2.171   2.171   2.171   2.171   2.171   2.171   2.171   2.171   2.171   2.171   2.171   2.171   2.171   2.171   2.171   2.171   2.171   2.171   2.171   2.171   2.171   2.171   2.171   2.171   2.171
    18.14    2.171   2.171   2.171   2.171   2.171   2.171   2.171   2.171   2.171   2.171   2.171   2.171   2.171   2.171   2.171   2.171   2.171   2.171   2.171   2.171   2.171   2.171   2.171   2.171   2.171   2.171   2.171   2.171   2.171   2.171   2.171   2.171   2.171   2.171   2.171   2.171
     9.57    2.171   2.171   2.171   2.171   2.171   2.171   2.171   2.171   2.171   2.171   2.171   2.171   2.171   2.171   2.171   2.171   2.171   2.171   2.171   2.171   2.171   2.171   2.171   2.171   2.171   2.171   2.171   2.171   2.171   2.171   2.171   2.171   2.171   2.171   2.171   2.171
     1.00    2.171   2.171   2.171   2.171   2.171   2.171   2.171   2.171   2.171   2.171   2.171   2.171   2.171   2.171   2.171   2.171   2.171   2.171   2.171   2.171   2.171   2.171   2.171   2.171   2.171   2.171   2.171   2.171   2.171   2.171   2.171   2.171   2.171   2.171   2.171   2.171

   Height   Standard deviation at grid points for the w component:
   301.00    2.171   2.171   2.171   2.171   2.171   2.171   2.171   2.171   2.171   2.171   2.171   2.171   2.171   2.171   2.171   2.171   2.171   2.171   2.171   2.171   2.171   2.171   2.171   2.171   2.171   2.171   2.171   2.171   2.171   2.171   2.171   2.171   2.171   2.171   2.171   2.171
   292.43    2.171   2.171   2.171   2.171   2.171   2.171   2.171   2.171   2.171   2.171   2.171   2.171   2.171   2.171   2.171   2.171   2.171   2.171   2.171   2.171   2.171   2.171   2.171   2.171   2.171   2.171   2.171   2.171   2.171   2.171   2.171   2.171   2.171   2.171   2.171   2.171
   283.86    2.171   2.171   2.171   2.171   2.171   2.171   2.171   2.171   2.171   2.171   2.171   2.171   2.171   2.171   2.171   2.171   2.171   2.171   2.171   2.171   2.171   2.171   2.171   2.171   2.171   2.171   2.171   2.171   2.171   2.171   2.171   2.171   2.171   2.171   2.171   2.171
   275.29    2.171   2.171   2.171   2.171   2.171   2.171   2.171   2.171   2.171   2.171   2.171   2.171   2.171   2.171   2.171   2.171   2.171   2.171   2.171   2.171   2.171   2.171   2.171   2.171   2.171   2.171   2.171   2.171   2.171   2.171   2.171   2.171   2.171   2.171   2.171   2.171
   266.71    2.171   2.171   2.171   2.171   2.171   2.171   2.171   2.171   2.171   2.171   2.171   2.171   2.171   2.171   2.171   2.171   2.171   2.171   2.171   2.171   2.171   2.171   2.171   2.171   2.171   2.171   2.171   2.171   2.171   2.171   2.171   2.171   2.171   2.171   2.171   2.171
   258.14    2.171   2.171   2.171   2.171   2.171   2.171   2.171   2.171   2.171   2.171   2.171   2.171   2.171   2.171   2.171   2.171   2.171   2.171   2.171   2.171   2.171   2.171   2.171   2.171   2.171   2.171   2.171   2.171   2.171   2.171   2.171   2.171   2.171   2.171   2.171   2.171
   249.57    2.171   2.171   2.171   2.171   2.171   2.171   2.171   2.171   2.171   2.171   2.171   2.171   2.171   2.171   2.171   2.171   2.171   2.171   2.171   2.171   2.171   2.171   2.171   2.171   2.171   2.171   2.171   2.171   2.171   2.171   2.171   2.171   2.171   2.171   2.171   2.171
   241.00    2.171   2.171   2.171   2.171   2.171   2.171   2.171   2.171   2.171   2.171   2.171   2.171   2.171   2.171   2.171   2.171   2.171   2.171   2.171   2.171   2.171   2.171   2.171   2.171   2.171   2.171   2.171   2.171   2.171   2.171   2.171   2.171   2.171   2.171   2.171   2.171
   232.43    2.171   2.171   2.171   2.171   2.171   2.171   2.171   2.171   2.171   2.171   2.171   2.171   2.171   2.171   2.171   2.171   2.171   2.171   2.171   2.171   2.171   2.171   2.171   2.171   2.171   2.171   2.171   2.171   2.171   2.171   2.171   2.171   2.171   2.171   2.171   2.171
   223.86    2.171   2.171   2.171   2.171   2.171   2.171   2.171   2.171   2.171   2.171   2.171   2.171   2.171   2.171   2.171   2.171   2.171   2.171   2.171   2.171   2.171   2.171   2.171   2.171   2.171   2.171   2.171   2.171   2.171   2.171   2.171   2.171   2.171   2.171   2.171   2.171
   215.29    2.171   2.171   2.171   2.171   2.171   2.171   2.171   2.171   2.171   2.171   2.171   2.171   2.171   2.171   2.171   2.171   2.171   2.171   2.171   2.171   2.171   2.171   2.171   2.171   2.171   2.171   2.171   2.171   2.171   2.171   2.171   2.171   2.171   2.171   2.171   2.171
   206.71    2.171   2.171   2.171   2.171   2.171   2.171   2.171   2.171   2.171   2.171   2.171   2.171   2.171   2.171   2.171   2.171   2.171   2.171   2.171   2.171   2.171   2.171   2.171   2.171   2.171   2.171   2.171   2.171   2.171   2.171   2.171   2.171   2.171   2.171   2.171   2.171
   198.14    2.171   2.171   2.171   2.171   2.171   2.171   2.171   2.171   2.171   2.171   2.171   2.171   2.171   2.171   2.171   2.171   2.171   2.171   2.171   2.171   2.171   2.171   2.171   2.171   2.171   2.171   2.171   2.171   2.171   2.171   2.171   2.171   2.171   2.171   2.171   2.171
   189.57    2.171   2.171   2.171   2.171   2.171   2.171   2.171   2.171   2.171   2.171   2.171   2.171   2.171   2.171   2.171   2.171   2.171   2.171   2.171   2.171   2.171   2.171   2.171   2.171   2.171   2.171   2.171   2.171   2.171   2.171   2.171   2.171   2.171   2.171   2.171   2.171
   181.00    2.171   2.171   2.171   2.171   2.171   2.171   2.171   2.171   2.171   2.171   2.171   2.171   2.171   2.171   2.171   2.171   2.171   2.171   2.171   2.171   2.171   2.171   2.171   2.171   2.171   2.171   2.171   2.171   2.171   2.171   2.171   2.171   2.171   2.171   2.171   2.171
   172.43    2.171   2.171   2.171   2.171   2.171   2.171   2.171   2.171   2.171   2.171   2.171   2.171   2.171   2.171   2.171   2.171   2.171   2.171   2.171   2.171   2.171   2.171   2.171   2.171   2.171   2.171   2.171   2.171   2.171   2.171   2.171   2.171   2.171   2.171   2.171   2.171
   163.86    2.171   2.171   2.171   2.171   2.171   2.171   2.171   2.171   2.171   2.171   2.171   2.171   2.171   2.171   2.171   2.171   2.171   2.171   2.171   2.171   2.171   2.171   2.171   2.171   2.171   2.171   2.171   2.171   2.171   2.171   2.171   2.171   2.171   2.171   2.171   2.171
   155.29    2.171   2.171   2.171   2.171   2.171   2.171   2.171   2.171   2.171   2.171   2.171   2.171   2.171   2.171   2.171   2.171   2.171   2.171   2.171   2.171   2.171   2.171   2.171   2.171   2.171   2.171   2.171   2.171   2.171   2.171   2.171   2.171   2.171   2.171   2.171   2.171
   146.71    2.171   2.171   2.171   2.171   2.171   2.171   2.171   2.171   2.171   2.171   2.171   2.171   2.171   2.171   2.171   2.171   2.171   2.171   2.171   2.171   2.171   2.171   2.171   2.171   2.171   2.171   2.171   2.171   2.171   2.171   2.171   2.171   2.171   2.171   2.171   2.171
   138.14    2.171   2.171   2.171   2.171   2.171   2.171   2.171   2.171   2.171   2.171   2.171   2.171   2.171   2.171   2.171   2.171   2.171   2.171   2.171   2.171   2.171   2.171   2.171   2.171   2.171   2.171   2.171   2.171   2.171   2.171   2.171   2.171   2.171   2.171   2.171   2.171
   129.57    2.171   2.171   2.171   2.171   2.171   2.171   2.171   2.171   2.171   2.171   2.171   2.171   2.171   2.171   2.171   2.171   2.171   2.171   2.171   2.171   2.171   2.171   2.171   2.171   2.171   2.171   2.171   2.171   2.171   2.171   2.171   2.171   2.171   2.171   2.171   2.171
   121.00    2.171   2.171   2.171   2.171   2.171   2.171   2.171   2.171   2.171   2.171   2.171   2.171   2.171   2.171   2.171   2.171   2.171   2.171   2.171   2.171   2.171   2.171   2.171   2.171   2.171   2.171   2.171   2.171   2.171   2.171   2.171   2.171   2.171   2.171   2.171   2.171
   112.43    2.171   2.171   2.171   2.171   2.171   2.171   2.171   2.171   2.171   2.171   2.171   2.171   2.171   2.171   2.171   2.171   2.171   2.171   2.171   2.171   2.171   2.171   2.171   2.171   2.171   2.171   2.171   2.171   2.171   2.171   2.171   2.171   2.171   2.171   2.171   2.171
   103.86    2.171   2.171   2.171   2.171   2.171   2.171   2.171   2.171   2.171   2.171   2.171   2.171   2.171   2.171   2.171   2.171   2.171   2.171   2.171   2.171   2.171   2.171   2.171   2.171   2.171   2.171   2.171   2.171   2.171   2.171   2.171   2.171   2.171   2.171   2.171   2.171
    95.29    2.171   2.171   2.171   2.171   2.171   2.171   2.171   2.171   2.171   2.171   2.171   2.171   2.171   2.171   2.171   2.171   2.171   2.171   2.171   2.171   2.171   2.171   2.171   2.171   2.171   2.171   2.171   2.171   2.171   2.171   2.171   2.171   2.171   2.171   2.171   2.171
    86.71    2.171   2.171   2.171   2.171   2.171   2.171   2.171   2.171   2.171   2.171   2.171   2.171   2.171   2.171   2.171   2.171   2.171   2.171   2.171   2.171   2.171   2.171   2.171   2.171   2.171   2.171   2.171   2.171   2.171   2.171   2.171   2.171   2.171   2.171   2.171   2.171
    78.14    2.171   2.171   2.171   2.171   2.171   2.171   2.171   2.171   2.171   2.171   2.171   2.171   2.171   2.171   2.171   2.171   2.171   2.171   2.171   2.171   2.171   2.171   2.171   2.171   2.171   2.171   2.171   2.171   2.171   2.171   2.171   2.171   2.171   2.171   2.171   2.171
    69.57    2.171   2.171   2.171   2.171   2.171   2.171   2.171   2.171   2.171   2.171   2.171   2.171   2.171   2.171   2.171   2.171   2.171   2.171   2.171   2.171   2.171   2.171   2.171   2.171   2.171   2.171   2.171   2.171   2.171   2.171   2.171   2.171   2.171   2.171   2.171   2.171
    61.00    2.171   2.171   2.171   2.171   2.171   2.171   2.171   2.171   2.171   2.171   2.171   2.171   2.171   2.171   2.171   2.171   2.171   2.171   2.171   2.171   2.171   2.171   2.171   2.171   2.171   2.171   2.171   2.171   2.171   2.171   2.171   2.171   2.171   2.171   2.171   2.171
    52.43    2.171   2.171   2.171   2.171   2.171   2.171   2.171   2.171   2.171   2.171   2.171   2.171   2.171   2.171   2.171   2.171   2.171   2.171   2.171   2.171   2.171   2.171   2.171   2.171   2.171   2.171   2.171   2.171   2.171   2.171   2.171   2.171   2.171   2.171   2.171   2.171
    43.86    2.171   2.171   2.171   2.171   2.171   2.171   2.171   2.171   2.171   2.171   2.171   2.171   2.171   2.171   2.171   2.171   2.171   2.171   2.171   2.171   2.171   2.171   2.171   2.171   2.171   2.171   2.171   2.171   2.171   2.171   2.171   2.171   2.171   2.171   2.171   2.171
    35.29    2.171   2.171   2.171   2.171   2.171   2.171   2.171   2.171   2.171   2.171   2.171   2.171   2.171   2.171   2.171   2.171   2.171   2.171   2.171   2.171   2.171   2.171   2.171   2.171   2.171   2.171   2.171   2.171   2.171   2.171   2.171   2.171   2.171   2.171   2.171   2.171
    26.71    2.171   2.171   2.171   2.171   2.171   2.171   2.171   2.171   2.171   2.171   2.171   2.171   2.171   2.171   2.171   2.171   2.171   2.171   2.171   2.171   2.171   2.171   2.171   2.171   2.171   2.171   2.171   2.171   2.171   2.171   2.171   2.171   2.171   2.171   2.171   2.171
    18.14    2.171   2.171   2.171   2.171   2.171   2.171   2.171   2.171   2.171   2.171   2.171   2.171   2.171   2.171   2.171   2.171   2.171   2.171   2.171   2.171   2.171   2.171   2.171   2.171   2.171   2.171   2.171   2.171   2.171   2.171   2.171   2.171   2.171   2.171   2.171   2.171
     9.57    2.171   2.171   2.171   2.171   2.171   2.171   2.171   2.171   2.171   2.171   2.171   2.171   2.171   2.171   2.171   2.171   2.171   2.171   2.171   2.171   2.171   2.171   2.171   2.171   2.171   2.171   2.171   2.171   2.171   2.171   2.171   2.171   2.171   2.171   2.171   2.171
     1.00    2.171   2.171   2.171   2.171   2.171   2.171   2.171   2.171   2.171   2.171   2.171   2.171   2.171   2.171   2.171   2.171   2.171   2.171   2.171   2.171   2.171   2.171   2.171   2.171   2.171   2.171   2.171   2.171   2.171   2.171   2.171   2.171   2.171   2.171   2.171   2.171

   Mean standard deviation across all grid points:
      u component:    2.238 m/s
      v component:    2.171 m/s
      w component:    2.171 m/s


U-component (X) statistics from the interpolated hub point:

   Mean =  10.9704 m/s
   TI   =  19.0636 %


Normalizing Parameters for Binary Data (approximate statistics):

   UBar  =  10.9711 m/s
   TI(u) =  21.4972 %
   TI(v) =  19.7889 %
   TI(w) =  19.7889 %

   Height Offset =   0.0000 m
   Grid Base     =   1.0000 m

Creating a PERIODIC output file.


Processing complete.  117.31 CPU seconds used.
