
This summary file was generated by TurbSim (v2.00.07a-bjj, 14-Jun-2016) on 03-Nov-2023 at 03:21:07.


Runtime Options:

      2901  Random seed #1
    RANLUX  Type of random number generator
         F  Output binary HH turbulence parameters?
         F  Output formatted turbulence parameters?
         F  Output AeroDyn HH files?
         F  Output AeroDyn FF files?
         T  Output BLADED FF files?
         F  Output tower data?
         F  Output formatted FF files?
         F  Output coherent turbulence time step file?
         T  Clockwise rotation when looking downwind?
 0 -  NONE  IEC turbulence models scaled to exact specified standard deviation


Turbine/Model Specifications:

        36  Vertical grid-point matrix dimension
        36  Horizontal grid-point matrix dimension
     0.100  Time step [seconds]
   660.000  Analysis time [seconds]
   660.000  Usable output time [seconds]
   151.000  Hub height [m]
   300.000  Grid height [m]
   300.000  Grid width [m]
     0.000  Vertical flow angle [degrees]
     0.000  Horizontal flow angle [degrees]


Meteorological Boundary Conditions:

    IECVKM  IEC von Karman spectral model
         1  IEC standard: IEC 61400-1 Ed. 3: 2005
         A  IEC turbulence characteristic
       NTM  IEC Normal Turbulence Model
       N/A  IEC Extreme Turbulence Model (ETM) "c" parameter [m/s]
       PL   Wind profile type
   153.000  Reference height [m]
    14.000  Reference wind speed [m/s]
       N/A  Jet height [m]
     0.200  Power law exponent
     0.030  Surface roughness length [m]


Non-IEC Meteorological Boundary Conditions:

       N/A  Site latitude [degrees]
       N/A  Gradient Richardson number
       N/A  Friction or shear velocity [m/s]
       N/A  Mixing layer depth [m]
       N/A  Mean hub u'w' Reynolds stress
       N/A  Mean hub u'v' Reynolds stress
       N/A  Mean hub v'w' Reynolds stress


Spatial Coherence Models:

       IEC  u-component coherence model
      NONE  v-component coherence model
      NONE  w-component coherence model
(   12.000, 0.353E-03)  u-component coherence parameters
                   N/A  v-component coherence parameters
                   N/A  w-component coherence parameters
       N/A  Coherence exponent


You have requested that the following file(s) be generated:

   G:\2023\OpenWECDV1.0.0_x64\BaseLIne\wind\WindL_V_14_seed_2901.wnd (AeroDyn/BLADED full-field wnd file)


Turbulence Simulation Scaling Parameter Summary:

   Turbulence model used                            =  IEC von Karman
   Turbulence characteristic                        =  A
   IEC turbulence type                              =  Normal Turbulence Model
   IEC standard                                     =  IEC 61400-1 Ed. 3: 2005
   Mean wind speed at hub height                    =   13.963 m/s
   Expected value of turbulence intensity at 15 m/s =   16.000%
   Characteristic value of standard deviation       =    2.572 m/s
   Turbulence scale                                 =   42.000 m
   Isotropic integral scale                         =  147.000 m
   Characteristic value of hub turbulence intensity =   18.417%
   Gradient Richardson number                       =    0.000

   Wind profile type                                =  Power law
   Power law exponent                               =    0.200
   Mean shear across rotor disk                     =    0.036 (m/s)/m
   Assumed rotor diameter                           =  300.000 m
   Surface roughness length                         =    0.030 m

   Nyquist frequency of turbulent wind field        =    5.000 Hz

   Number of time steps in the FFT                  =     6600
   Number of time steps output                      =     6600
   Number of points simulated                       =     1297


Mean Flow Angles:

   Vertical   =   0.0 degrees
   Horizontal =   0.0 degrees

Mean Wind Speed Profile:

   Height    Wind Speed   Horizontal Angle  Vertical Angle  U-comp (X)   V-comp (Y)   W-comp (Z)
     (m)        (m/s)         (degrees)       (degrees)       (m/s)        (m/s)        (m/s)   
   ------    ----------   ----------------  --------------  ----------   ----------   ----------
    301.0       16.03            0.00            0.00         16.03         0.00         0.00
    292.4       15.94            0.00            0.00         15.94         0.00         0.00
    283.9       15.84            0.00            0.00         15.84         0.00         0.00
    275.3       15.75            0.00            0.00         15.75         0.00         0.00
    266.7       15.65            0.00            0.00         15.65         0.00         0.00
    258.1       15.54            0.00            0.00         15.54         0.00         0.00
    249.6       15.44            0.00            0.00         15.44         0.00         0.00
    241.0       15.33            0.00            0.00         15.33         0.00         0.00
    232.4       15.22            0.00            0.00         15.22         0.00         0.00
    223.9       15.11            0.00            0.00         15.11         0.00         0.00
    215.3       14.99            0.00            0.00         14.99         0.00         0.00
    206.7       14.87            0.00            0.00         14.87         0.00         0.00
    198.1       14.74            0.00            0.00         14.74         0.00         0.00
    189.6       14.61            0.00            0.00         14.61         0.00         0.00
    181.0       14.48            0.00            0.00         14.48         0.00         0.00
    172.4       14.34            0.00            0.00         14.34         0.00         0.00
    163.9       14.19            0.00            0.00         14.19         0.00         0.00
    155.3       14.04            0.00            0.00         14.04         0.00         0.00
    151.0       13.96            0.00            0.00         13.96         0.00         0.00
    146.7       13.88            0.00            0.00         13.88         0.00         0.00
    138.1       13.72            0.00            0.00         13.72         0.00         0.00
    129.6       13.54            0.00            0.00         13.54         0.00         0.00
    121.0       13.36            0.00            0.00         13.36         0.00         0.00
    112.4       13.16            0.00            0.00         13.16         0.00         0.00
    103.9       12.96            0.00            0.00         12.96         0.00         0.00
     95.3       12.73            0.00            0.00         12.73         0.00         0.00
     86.7       12.50            0.00            0.00         12.50         0.00         0.00
     78.1       12.24            0.00            0.00         12.24         0.00         0.00
     69.6       11.96            0.00            0.00         11.96         0.00         0.00
     61.0       11.65            0.00            0.00         11.65         0.00         0.00
     52.4       11.30            0.00            0.00         11.30         0.00         0.00
     43.9       10.90            0.00            0.00         10.90         0.00         0.00
     35.3       10.44            0.00            0.00         10.44         0.00         0.00
     26.7        9.88            0.00            0.00          9.88         0.00         0.00
     18.1        9.14            0.00            0.00          9.14         0.00         0.00
      9.6        8.04            0.00            0.00          8.04         0.00         0.00
      1.0        5.12            0.00            0.00          5.12         0.00         0.00


Harvested Random Seeds after Generation of the Random Numbers:

    119307688 K 1
            0 K 2


Hub-Height Simulated Turbulence Statistical Summary:

   Type of Wind        Min (m/s)   Mean (m/s)    Max (m/s)  Sigma (m/s)       TI (%)
   ----------------    ---------   ----------    ---------  -----------       ------
   Longitudinal (u)         5.08        13.96        21.94        2.594       18.576
   Lateral (v)             -9.43        -0.00         8.74        2.526       18.090
   Vertical (w)            -8.65         0.00         9.71        2.526       18.090
   U component              5.08        13.96        21.94        2.594       18.576
   V component             -9.43        -0.00         8.74        2.526       18.090
   W component             -8.65         0.00         9.71        2.526       18.090
   Horizontal (U&V)         5.60        14.20        22.13        2.525       17.777
   Total                    7.05        14.43        22.35        2.510       17.400

                       Min Reynolds     Mean Reynolds    Max Reynolds    Correlation
   Product             Stress (m/s)^2   Stress (m/s)^2   Stress (m/s)^2  Coefficient
   ----------------    --------------   --------------   --------------  -----------
   u'w'                    -23.337             1.261            48.581         0.192
   u'v'                    -56.824            -1.236            33.468        -0.189
   v'w'                    -38.627            -1.320            28.195        -0.207


   Friction Velocity (Ustar)  =      1.123 m/s
   Maximum Instantaneous TKE  =     60.129 (m/s)^2
   Maximum Instantaneous CTKE =     30.519 (m/s)^2


Grid Point Variance Summary:

   Y-coord -150.00 -141.43 -132.86 -124.29 -115.71 -107.14  -98.57  -90.00  -81.43  -72.86  -64.29  -55.71  -47.14  -38.57  -30.00  -21.43  -12.86   -4.29    4.29   12.86   21.43   30.00   38.57   47.14   55.71   64.29   72.86   81.43   90.00   98.57  107.14  115.71  124.29  132.86  141.43  150.00

   Height   Standard deviation at grid points for the u component:
   301.00    2.216   2.105   2.164   2.263   2.229   2.352   2.499   2.576   2.687   2.843   2.789   2.824   2.849   2.735   2.774   2.868   2.900   2.865   2.840   2.716   2.884   2.851   2.741   2.846   2.962   3.043   2.956   2.864   2.739   2.611   2.337   2.416   2.396   2.531   2.510   2.593
   292.43    2.235   2.129   2.112   2.355   2.292   2.489   2.585   2.633   2.801   2.928   2.825   2.832   2.864   2.752   2.839   2.877   2.954   2.861   2.791   2.785   2.914   2.933   2.870   2.954   3.101   2.854   2.777   2.779   2.735   2.747   2.521   2.400   2.351   2.371   2.514   2.594
   283.86    2.142   2.174   2.191   2.321   2.581   2.637   2.755   2.558   2.780   2.766   2.732   2.810   2.976   2.874   2.919   2.810   2.830   2.886   2.841   2.774   2.876   2.998   2.902   2.881   3.000   2.937   2.857   2.724   2.777   2.727   2.757   2.618   2.347   2.565   2.613   2.589
   275.29    2.141   2.139   2.276   2.434   2.545   2.507   2.647   2.690   2.660   2.813   2.803   2.963   2.989   2.910   3.047   2.946   2.926   2.887   2.809   2.718   3.009   2.935   2.998   3.041   2.964   2.869   2.790   2.732   2.834   2.626   2.672   2.630   2.534   2.522   2.610   2.551
   266.71    2.189   2.225   2.290   2.371   2.369   2.665   2.676   2.718   2.732   2.829   2.858   3.048   3.013   2.914   3.034   3.089   2.921   2.784   2.728   2.838   2.968   2.872   3.016   2.994   2.737   2.771   2.727   2.689   2.729   2.683   2.799   2.537   2.504   2.467   2.509   2.501
   258.14    2.166   2.340   2.368   2.477   2.496   2.514   2.620   2.612   2.790   2.885   2.962   3.102   3.044   3.030   3.139   3.088   3.119   2.833   2.885   2.894   2.851   3.035   2.968   2.999   2.898   2.787   2.734   2.705   2.687   2.673   2.688   2.503   2.488   2.461   2.433   2.498
   249.57    2.280   2.302   2.285   2.426   2.526   2.630   2.669   2.582   2.708   2.965   2.915   2.993   3.046   3.158   3.180   3.021   3.020   2.934   2.768   2.842   2.762   2.832   2.891   2.821   2.956   2.768   2.812   2.776   2.803   2.803   2.720   2.567   2.533   2.479   2.494   2.374
   241.00    2.323   2.184   2.254   2.445   2.449   2.657   2.764   2.946   3.039   2.903   3.006   2.863   3.071   3.149   3.178   3.157   2.873   2.765   2.692   2.746   2.851   2.903   2.803   2.954   2.697   2.849   2.823   2.846   2.908   2.771   2.794   2.617   2.634   2.480   2.497   2.307
   232.43    2.399   2.125   2.266   2.353   2.485   2.566   2.850   2.784   2.998   3.057   2.875   2.910   2.989   3.003   3.072   3.090   2.935   2.824   2.747   2.822   2.970   2.835   2.791   2.727   2.735   2.836   2.849   2.787   2.905   2.770   2.721   2.701   2.664   2.654   2.418   2.471
   223.86    2.382   2.331   2.409   2.361   2.514   2.505   2.689   2.765   2.978   2.933   2.985   2.907   2.812   3.020   2.908   2.865   2.943   2.971   2.775   2.866   2.884   2.896   2.728   2.672   2.737   2.924   2.891   2.705   2.798   2.737   2.860   2.771   2.576   2.533   2.575   2.566
   215.29    2.407   2.375   2.344   2.450   2.483   2.518   2.549   2.651   2.753   2.951   2.981   2.898   2.848   2.899   2.749   2.682   2.755   2.879   2.943   2.990   3.016   2.884   2.741   2.726   2.799   2.916   2.855   2.877   2.748   2.696   2.523   2.729   2.635   2.608   2.508   2.423
   206.71    2.286   2.482   2.484   2.467   2.478   2.490   2.448   2.547   2.755   2.945   2.906   3.076   2.943   3.030   2.889   2.834   2.786   2.881   2.953   3.097   2.872   2.866   2.790   2.700   2.757   2.890   2.972   2.908   2.916   2.593   2.463   2.511   2.619   2.636   2.518   2.431
   198.14    2.397   2.406   2.387   2.466   2.548   2.640   2.605   2.668   2.805   2.832   2.854   2.961   2.848   2.924   2.885   2.772   2.909   2.888   2.941   2.933   2.921   2.836   2.696   2.740   2.766   2.871   2.889   2.868   2.805   2.740   2.566   2.552   2.560   2.449   2.421   2.318
   189.57    2.171   2.378   2.379   2.444   2.365   2.454   2.461   2.609   2.703   2.734   2.841   2.902   2.907   2.931   2.843   2.849   2.929   3.046   3.021   2.946   2.813   2.924   2.834   2.822   2.697   2.800   2.941   2.766   2.793   2.659   2.563   2.511   2.456   2.372   2.399   2.417
   181.00    2.262   2.235   2.319   2.387   2.520   2.612   2.643   2.694   2.634   2.659   2.641   2.876   2.819   3.050   2.998   2.951   3.019   3.031   2.971   2.829   2.792   2.743   2.889   2.848   2.641   2.783   2.627   2.634   2.751   2.658   2.561   2.473   2.459   2.420   2.509   2.527
   172.43    2.161   2.304   2.327   2.444   2.515   2.530   2.681   2.666   2.638   2.674   2.545   2.821   2.873   2.901   2.929   3.031   2.897   2.785   2.875   2.951   2.775   2.647   2.749   2.809   2.566   2.691   2.574   2.655   2.763   2.819   2.516   2.467   2.432   2.448   2.445   2.511
   163.86    2.248   2.348   2.455   2.535   2.447   2.423   2.579   2.505   2.603   2.559   2.445   2.780   2.913   2.860   2.974   3.035   2.810   2.676   2.819   2.856   2.646   2.619   2.592   2.625   2.679   2.533   2.440   2.590   2.598   2.600   2.517   2.268   2.237   2.243   2.266   2.341
   155.29    2.201   2.273   2.497   2.567   2.466   2.425   2.423   2.396   2.568   2.653   2.537   2.844   3.004   3.062   2.966   2.917   2.659   2.603   2.609   2.725   2.684   2.593   2.716   2.637   2.618   2.542   2.254   2.396   2.360   2.398   2.482   2.120   2.085   2.143   2.293   2.361
   146.71    2.109   2.197   2.384   2.436   2.389   2.481   2.562   2.562   2.592   2.379   2.548   2.894   2.835   2.938   2.901   2.762   2.639   2.688   2.671   2.634   2.648   2.666   2.830   2.913   2.683   2.477   2.466   2.386   2.171   2.226   2.417   2.136   2.133   2.159   2.187   2.265
   138.14    2.148   2.283   2.364   2.373   2.346   2.459   2.498   2.565   2.666   2.610   2.683   2.678   2.727   2.719   2.688   2.688   2.637   2.594   2.645   2.607   2.602   2.641   2.793   2.758   2.533   2.503   2.501   2.367   2.224   2.319   2.248   2.210   2.060   1.963   2.205   2.270
   129.57    2.247   2.300   2.441   2.256   2.407   2.538   2.586   2.681   2.685   2.844   2.840   2.651   2.721   2.676   2.669   2.658   2.594   2.569   2.509   2.524   2.528   2.558   2.583   2.637   2.430   2.545   2.475   2.373   2.280   2.363   2.231   2.305   2.162   2.119   2.197   2.239
   121.00    2.450   2.402   2.467   2.431   2.493   2.614   2.603   2.776   2.844   2.919   2.801   2.695   2.614   2.497   2.404   2.622   2.543   2.487   2.506   2.555   2.418   2.311   2.343   2.433   2.506   2.646   2.729   2.604   2.482   2.317   2.392   2.342   2.260   2.289   2.216   2.304
   112.43    2.554   2.409   2.409   2.545   2.617   2.648   2.797   2.845   2.808   3.005   2.971   2.649   2.608   2.548   2.396   2.593   2.441   2.382   2.411   2.412   2.439   2.357   2.378   2.285   2.417   2.627   2.793   2.669   2.491   2.396   2.322   2.295   2.288   2.317   2.253   2.259
   103.86    2.647   2.570   2.588   2.508   2.681   2.801   2.944   3.018   2.980   2.994   2.975   2.803   2.653   2.693   2.533   2.585   2.473   2.464   2.647   2.448   2.522   2.478   2.483   2.305   2.364   2.641   2.755   2.645   2.561   2.352   2.406   2.359   2.316   2.257   2.307   2.288
    95.29    2.584   2.654   2.554   2.534   2.589   2.676   2.689   2.839   2.951   2.936   2.877   2.909   2.839   2.563   2.438   2.467   2.528   2.551   2.543   2.523   2.525   2.559   2.534   2.409   2.461   2.758   2.747   2.580   2.532   2.479   2.550   2.422   2.303   2.289   2.140   2.102
    86.71    2.515   2.558   2.529   2.474   2.532   2.568   2.624   2.818   2.795   2.752   2.708   2.897   2.747   2.712   2.661   2.597   2.559   2.559   2.476   2.440   2.484   2.604   2.440   2.382   2.519   2.515   2.573   2.615   2.598   2.380   2.230   2.255   2.210   2.214   2.108   2.055
    78.14    2.703   2.789   2.768   2.790   2.624   2.576   2.679   2.750   2.660   2.698   2.823   2.804   2.738   2.650   2.639   2.700   2.683   2.737   2.513   2.398   2.548   2.530   2.344   2.249   2.374   2.530   2.584   2.490   2.497   2.467   2.352   2.159   2.121   2.079   2.124   2.209
    69.57    2.773   2.880   2.831   2.884   2.803   2.690   2.777   2.826   2.827   2.942   2.863   2.859   2.873   2.659   2.724   2.643   2.599   2.561   2.587   2.592   2.438   2.315   2.409   2.437   2.527   2.386   2.435   2.437   2.310   2.352   2.324   2.226   2.122   2.063   1.963   2.103
    61.00    2.863   2.920   2.845   2.781   2.703   2.730   2.637   2.632   2.756   2.835   2.848   2.751   2.834   2.692   2.634   2.459   2.342   2.374   2.468   2.452   2.416   2.369   2.408   2.429   2.523   2.563   2.528   2.366   2.284   2.270   2.260   2.272   2.205   2.180   1.998   2.073
    52.43    2.876   2.895   2.959   2.866   2.716   2.627   2.615   2.689   2.767   2.708   2.696   2.858   2.842   2.717   2.525   2.390   2.312   2.188   2.327   2.386   2.336   2.358   2.379   2.557   2.534   2.544   2.478   2.271   2.261   2.233   2.170   2.195   2.160   2.294   2.250   2.030
    43.86    2.931   2.832   2.886   2.862   2.850   2.775   2.677   2.747   2.693   2.713   2.924   2.932   2.803   2.760   2.579   2.459   2.350   2.486   2.421   2.487   2.529   2.532   2.468   2.422   2.474   2.465   2.288   2.254   2.189   2.336   2.227   2.099   2.220   2.252   2.182   2.205
    35.29    2.937   2.816   2.885   2.793   2.673   2.881   2.703   2.539   2.709   2.918   2.906   2.905   2.587   2.566   2.579   2.566   2.547   2.514   2.584   2.432   2.428   2.510   2.540   2.516   2.495   2.363   2.248   2.266   2.209   2.281   2.221   2.260   2.190   2.212   2.233   2.373
    26.71    2.826   2.822   2.644   2.697   2.718   2.710   2.816   2.742   2.630   2.803   2.716   2.812   2.777   2.512   2.406   2.341   2.642   2.482   2.457   2.418   2.473   2.628   2.601   2.469   2.515   2.448   2.276   2.263   2.274   2.131   2.134   2.279   2.405   2.293   2.300   2.367
    18.14    2.812   2.659   2.714   2.701   2.755   2.589   2.582   2.524   2.735   2.751   2.769   2.751   2.646   2.571   2.557   2.412   2.416   2.480   2.368   2.521   2.652   2.675   2.708   2.595   2.347   2.399   2.169   2.044   2.176   2.114   2.197   2.325   2.419   2.300   2.270   2.358
     9.57    2.582   2.783   2.766   2.655   2.644   2.798   2.596   2.506   2.703   2.752   2.735   2.898   2.744   2.714   2.614   2.587   2.499   2.645   2.537   2.508   2.706   2.774   2.619   2.626   2.384   2.407   2.324   2.220   2.302   2.208   2.209   2.437   2.357   2.342   2.365   2.318
     1.00    2.512   2.594   2.647   2.580   2.646   2.682   2.816   2.725   2.660   2.606   2.618   2.621   2.680   2.604   2.686   2.512   2.553   2.641   2.549   2.571   2.637   2.704   2.661   2.744   2.553   2.466   2.365   2.405   2.491   2.466   2.276   2.334   2.409   2.508   2.591   2.396

   Height   Standard deviation at grid points for the v component:
   301.00    2.526   2.526   2.526   2.526   2.526   2.526   2.526   2.526   2.526   2.526   2.526   2.526   2.526   2.526   2.526   2.526   2.526   2.526   2.526   2.526   2.526   2.526   2.526   2.526   2.526   2.526   2.526   2.526   2.526   2.526   2.526   2.526   2.526   2.526   2.526   2.526
   292.43    2.526   2.526   2.526   2.526   2.526   2.526   2.526   2.526   2.526   2.526   2.526   2.526   2.526   2.526   2.526   2.526   2.526   2.526   2.526   2.526   2.526   2.526   2.526   2.526   2.526   2.526   2.526   2.526   2.526   2.526   2.526   2.526   2.526   2.526   2.526   2.526
   283.86    2.526   2.526   2.526   2.526   2.526   2.526   2.526   2.526   2.526   2.526   2.526   2.526   2.526   2.526   2.526   2.526   2.526   2.526   2.526   2.526   2.526   2.526   2.526   2.526   2.526   2.526   2.526   2.526   2.526   2.526   2.526   2.526   2.526   2.526   2.526   2.526
   275.29    2.526   2.526   2.526   2.526   2.526   2.526   2.526   2.526   2.526   2.526   2.526   2.526   2.526   2.526   2.526   2.526   2.526   2.526   2.526   2.526   2.526   2.526   2.526   2.526   2.526   2.526   2.526   2.526   2.526   2.526   2.526   2.526   2.526   2.526   2.526   2.526
   266.71    2.526   2.526   2.526   2.526   2.526   2.526   2.526   2.526   2.526   2.526   2.526   2.526   2.526   2.526   2.526   2.526   2.526   2.526   2.526   2.526   2.526   2.526   2.526   2.526   2.526   2.526   2.526   2.526   2.526   2.526   2.526   2.526   2.526   2.526   2.526   2.526
   258.14    2.526   2.526   2.526   2.526   2.526   2.526   2.526   2.526   2.526   2.526   2.526   2.526   2.526   2.526   2.526   2.526   2.526   2.526   2.526   2.526   2.526   2.526   2.526   2.526   2.526   2.526   2.526   2.526   2.526   2.526   2.526   2.526   2.526   2.526   2.526   2.526
   249.57    2.526   2.526   2.526   2.526   2.526   2.526   2.526   2.526   2.526   2.526   2.526   2.526   2.526   2.526   2.526   2.526   2.526   2.526   2.526   2.526   2.526   2.526   2.526   2.526   2.526   2.526   2.526   2.526   2.526   2.526   2.526   2.526   2.526   2.526   2.526   2.526
   241.00    2.526   2.526   2.526   2.526   2.526   2.526   2.526   2.526   2.526   2.526   2.526   2.526   2.526   2.526   2.526   2.526   2.526   2.526   2.526   2.526   2.526   2.526   2.526   2.526   2.526   2.526   2.526   2.526   2.526   2.526   2.526   2.526   2.526   2.526   2.526   2.526
   232.43    2.526   2.526   2.526   2.526   2.526   2.526   2.526   2.526   2.526   2.526   2.526   2.526   2.526   2.526   2.526   2.526   2.526   2.526   2.526   2.526   2.526   2.526   2.526   2.526   2.526   2.526   2.526   2.526   2.526   2.526   2.526   2.526   2.526   2.526   2.526   2.526
   223.86    2.526   2.526   2.526   2.526   2.526   2.526   2.526   2.526   2.526   2.526   2.526   2.526   2.526   2.526   2.526   2.526   2.526   2.526   2.526   2.526   2.526   2.526   2.526   2.526   2.526   2.526   2.526   2.526   2.526   2.526   2.526   2.526   2.526   2.526   2.526   2.526
   215.29    2.526   2.526   2.526   2.526   2.526   2.526   2.526   2.526   2.526   2.526   2.526   2.526   2.526   2.526   2.526   2.526   2.526   2.526   2.526   2.526   2.526   2.526   2.526   2.526   2.526   2.526   2.526   2.526   2.526   2.526   2.526   2.526   2.526   2.526   2.526   2.526
   206.71    2.526   2.526   2.526   2.526   2.526   2.526   2.526   2.526   2.526   2.526   2.526   2.526   2.526   2.526   2.526   2.526   2.526   2.526   2.526   2.526   2.526   2.526   2.526   2.526   2.526   2.526   2.526   2.526   2.526   2.526   2.526   2.526   2.526   2.526   2.526   2.526
   198.14    2.526   2.526   2.526   2.526   2.526   2.526   2.526   2.526   2.526   2.526   2.526   2.526   2.526   2.526   2.526   2.526   2.526   2.526   2.526   2.526   2.526   2.526   2.526   2.526   2.526   2.526   2.526   2.526   2.526   2.526   2.526   2.526   2.526   2.526   2.526   2.526
   189.57    2.526   2.526   2.526   2.526   2.526   2.526   2.526   2.526   2.526   2.526   2.526   2.526   2.526   2.526   2.526   2.526   2.526   2.526   2.526   2.526   2.526   2.526   2.526   2.526   2.526   2.526   2.526   2.526   2.526   2.526   2.526   2.526   2.526   2.526   2.526   2.526
   181.00    2.526   2.526   2.526   2.526   2.526   2.526   2.526   2.526   2.526   2.526   2.526   2.526   2.526   2.526   2.526   2.526   2.526   2.526   2.526   2.526   2.526   2.526   2.526   2.526   2.526   2.526   2.526   2.526   2.526   2.526   2.526   2.526   2.526   2.526   2.526   2.526
   172.43    2.526   2.526   2.526   2.526   2.526   2.526   2.526   2.526   2.526   2.526   2.526   2.526   2.526   2.526   2.526   2.526   2.526   2.526   2.526   2.526   2.526   2.526   2.526   2.526   2.526   2.526   2.526   2.526   2.526   2.526   2.526   2.526   2.526   2.526   2.526   2.526
   163.86    2.526   2.526   2.526   2.526   2.526   2.526   2.526   2.526   2.526   2.526   2.526   2.526   2.526   2.526   2.526   2.526   2.526   2.526   2.526   2.526   2.526   2.526   2.526   2.526   2.526   2.526   2.526   2.526   2.526   2.526   2.526   2.526   2.526   2.526   2.526   2.526
   155.29    2.526   2.526   2.526   2.526   2.526   2.526   2.526   2.526   2.526   2.526   2.526   2.526   2.526   2.526   2.526   2.526   2.526   2.526   2.526   2.526   2.526   2.526   2.526   2.526   2.526   2.526   2.526   2.526   2.526   2.526   2.526   2.526   2.526   2.526   2.526   2.526
   146.71    2.526   2.526   2.526   2.526   2.526   2.526   2.526   2.526   2.526   2.526   2.526   2.526   2.526   2.526   2.526   2.526   2.526   2.526   2.526   2.526   2.526   2.526   2.526   2.526   2.526   2.526   2.526   2.526   2.526   2.526   2.526   2.526   2.526   2.526   2.526   2.526
   138.14    2.526   2.526   2.526   2.526   2.526   2.526   2.526   2.526   2.526   2.526   2.526   2.526   2.526   2.526   2.526   2.526   2.526   2.526   2.526   2.526   2.526   2.526   2.526   2.526   2.526   2.526   2.526   2.526   2.526   2.526   2.526   2.526   2.526   2.526   2.526   2.526
   129.57    2.526   2.526   2.526   2.526   2.526   2.526   2.526   2.526   2.526   2.526   2.526   2.526   2.526   2.526   2.526   2.526   2.526   2.526   2.526   2.526   2.526   2.526   2.526   2.526   2.526   2.526   2.526   2.526   2.526   2.526   2.526   2.526   2.526   2.526   2.526   2.526
   121.00    2.526   2.526   2.526   2.526   2.526   2.526   2.526   2.526   2.526   2.526   2.526   2.526   2.526   2.526   2.526   2.526   2.526   2.526   2.526   2.526   2.526   2.526   2.526   2.526   2.526   2.526   2.526   2.526   2.526   2.526   2.526   2.526   2.526   2.526   2.526   2.526
   112.43    2.526   2.526   2.526   2.526   2.526   2.526   2.526   2.526   2.526   2.526   2.526   2.526   2.526   2.526   2.526   2.526   2.526   2.526   2.526   2.526   2.526   2.526   2.526   2.526   2.526   2.526   2.526   2.526   2.526   2.526   2.526   2.526   2.526   2.526   2.526   2.526
   103.86    2.526   2.526   2.526   2.526   2.526   2.526   2.526   2.526   2.526   2.526   2.526   2.526   2.526   2.526   2.526   2.526   2.526   2.526   2.526   2.526   2.526   2.526   2.526   2.526   2.526   2.526   2.526   2.526   2.526   2.526   2.526   2.526   2.526   2.526   2.526   2.526
    95.29    2.526   2.526   2.526   2.526   2.526   2.526   2.526   2.526   2.526   2.526   2.526   2.526   2.526   2.526   2.526   2.526   2.526   2.526   2.526   2.526   2.526   2.526   2.526   2.526   2.526   2.526   2.526   2.526   2.526   2.526   2.526   2.526   2.526   2.526   2.526   2.526
    86.71    2.526   2.526   2.526   2.526   2.526   2.526   2.526   2.526   2.526   2.526   2.526   2.526   2.526   2.526   2.526   2.526   2.526   2.526   2.526   2.526   2.526   2.526   2.526   2.526   2.526   2.526   2.526   2.526   2.526   2.526   2.526   2.526   2.526   2.526   2.526   2.526
    78.14    2.526   2.526   2.526   2.526   2.526   2.526   2.526   2.526   2.526   2.526   2.526   2.526   2.526   2.526   2.526   2.526   2.526   2.526   2.526   2.526   2.526   2.526   2.526   2.526   2.526   2.526   2.526   2.526   2.526   2.526   2.526   2.526   2.526   2.526   2.526   2.526
    69.57    2.526   2.526   2.526   2.526   2.526   2.526   2.526   2.526   2.526   2.526   2.526   2.526   2.526   2.526   2.526   2.526   2.526   2.526   2.526   2.526   2.526   2.526   2.526   2.526   2.526   2.526   2.526   2.526   2.526   2.526   2.526   2.526   2.526   2.526   2.526   2.526
    61.00    2.526   2.526   2.526   2.526   2.526   2.526   2.526   2.526   2.526   2.526   2.526   2.526   2.526   2.526   2.526   2.526   2.526   2.526   2.526   2.526   2.526   2.526   2.526   2.526   2.526   2.526   2.526   2.526   2.526   2.526   2.526   2.526   2.526   2.526   2.526   2.526
    52.43    2.526   2.526   2.526   2.526   2.526   2.526   2.526   2.526   2.526   2.526   2.526   2.526   2.526   2.526   2.526   2.526   2.526   2.526   2.526   2.526   2.526   2.526   2.526   2.526   2.526   2.526   2.526   2.526   2.526   2.526   2.526   2.526   2.526   2.526   2.526   2.526
    43.86    2.526   2.526   2.526   2.526   2.526   2.526   2.526   2.526   2.526   2.526   2.526   2.526   2.526   2.526   2.526   2.526   2.526   2.526   2.526   2.526   2.526   2.526   2.526   2.526   2.526   2.526   2.526   2.526   2.526   2.526   2.526   2.526   2.526   2.526   2.526   2.526
    35.29    2.526   2.526   2.526   2.526   2.526   2.526   2.526   2.526   2.526   2.526   2.526   2.526   2.526   2.526   2.526   2.526   2.526   2.526   2.526   2.526   2.526   2.526   2.526   2.526   2.526   2.526   2.526   2.526   2.526   2.526   2.526   2.526   2.526   2.526   2.526   2.526
    26.71    2.526   2.526   2.526   2.526   2.526   2.526   2.526   2.526   2.526   2.526   2.526   2.526   2.526   2.526   2.526   2.526   2.526   2.526   2.526   2.526   2.526   2.526   2.526   2.526   2.526   2.526   2.526   2.526   2.526   2.526   2.526   2.526   2.526   2.526   2.526   2.526
    18.14    2.526   2.526   2.526   2.526   2.526   2.526   2.526   2.526   2.526   2.526   2.526   2.526   2.526   2.526   2.526   2.526   2.526   2.526   2.526   2.526   2.526   2.526   2.526   2.526   2.526   2.526   2.526   2.526   2.526   2.526   2.526   2.526   2.526   2.526   2.526   2.526
     9.57    2.526   2.526   2.526   2.526   2.526   2.526   2.526   2.526   2.526   2.526   2.526   2.526   2.526   2.526   2.526   2.526   2.526   2.526   2.526   2.526   2.526   2.526   2.526   2.526   2.526   2.526   2.526   2.526   2.526   2.526   2.526   2.526   2.526   2.526   2.526   2.526
     1.00    2.526   2.526   2.526   2.526   2.526   2.526   2.526   2.526   2.526   2.526   2.526   2.526   2.526   2.526   2.526   2.526   2.526   2.526   2.526   2.526   2.526   2.526   2.526   2.526   2.526   2.526   2.526   2.526   2.526   2.526   2.526   2.526   2.526   2.526   2.526   2.526

   Height   Standard deviation at grid points for the w component:
   301.00    2.526   2.526   2.526   2.526   2.526   2.526   2.526   2.526   2.526   2.526   2.526   2.526   2.526   2.526   2.526   2.526   2.526   2.526   2.526   2.526   2.526   2.526   2.526   2.526   2.526   2.526   2.526   2.526   2.526   2.526   2.526   2.526   2.526   2.526   2.526   2.526
   292.43    2.526   2.526   2.526   2.526   2.526   2.526   2.526   2.526   2.526   2.526   2.526   2.526   2.526   2.526   2.526   2.526   2.526   2.526   2.526   2.526   2.526   2.526   2.526   2.526   2.526   2.526   2.526   2.526   2.526   2.526   2.526   2.526   2.526   2.526   2.526   2.526
   283.86    2.526   2.526   2.526   2.526   2.526   2.526   2.526   2.526   2.526   2.526   2.526   2.526   2.526   2.526   2.526   2.526   2.526   2.526   2.526   2.526   2.526   2.526   2.526   2.526   2.526   2.526   2.526   2.526   2.526   2.526   2.526   2.526   2.526   2.526   2.526   2.526
   275.29    2.526   2.526   2.526   2.526   2.526   2.526   2.526   2.526   2.526   2.526   2.526   2.526   2.526   2.526   2.526   2.526   2.526   2.526   2.526   2.526   2.526   2.526   2.526   2.526   2.526   2.526   2.526   2.526   2.526   2.526   2.526   2.526   2.526   2.526   2.526   2.526
   266.71    2.526   2.526   2.526   2.526   2.526   2.526   2.526   2.526   2.526   2.526   2.526   2.526   2.526   2.526   2.526   2.526   2.526   2.526   2.526   2.526   2.526   2.526   2.526   2.526   2.526   2.526   2.526   2.526   2.526   2.526   2.526   2.526   2.526   2.526   2.526   2.526
   258.14    2.526   2.526   2.526   2.526   2.526   2.526   2.526   2.526   2.526   2.526   2.526   2.526   2.526   2.526   2.526   2.526   2.526   2.526   2.526   2.526   2.526   2.526   2.526   2.526   2.526   2.526   2.526   2.526   2.526   2.526   2.526   2.526   2.526   2.526   2.526   2.526
   249.57    2.526   2.526   2.526   2.526   2.526   2.526   2.526   2.526   2.526   2.526   2.526   2.526   2.526   2.526   2.526   2.526   2.526   2.526   2.526   2.526   2.526   2.526   2.526   2.526   2.526   2.526   2.526   2.526   2.526   2.526   2.526   2.526   2.526   2.526   2.526   2.526
   241.00    2.526   2.526   2.526   2.526   2.526   2.526   2.526   2.526   2.526   2.526   2.526   2.526   2.526   2.526   2.526   2.526   2.526   2.526   2.526   2.526   2.526   2.526   2.526   2.526   2.526   2.526   2.526   2.526   2.526   2.526   2.526   2.526   2.526   2.526   2.526   2.526
   232.43    2.526   2.526   2.526   2.526   2.526   2.526   2.526   2.526   2.526   2.526   2.526   2.526   2.526   2.526   2.526   2.526   2.526   2.526   2.526   2.526   2.526   2.526   2.526   2.526   2.526   2.526   2.526   2.526   2.526   2.526   2.526   2.526   2.526   2.526   2.526   2.526
   223.86    2.526   2.526   2.526   2.526   2.526   2.526   2.526   2.526   2.526   2.526   2.526   2.526   2.526   2.526   2.526   2.526   2.526   2.526   2.526   2.526   2.526   2.526   2.526   2.526   2.526   2.526   2.526   2.526   2.526   2.526   2.526   2.526   2.526   2.526   2.526   2.526
   215.29    2.526   2.526   2.526   2.526   2.526   2.526   2.526   2.526   2.526   2.526   2.526   2.526   2.526   2.526   2.526   2.526   2.526   2.526   2.526   2.526   2.526   2.526   2.526   2.526   2.526   2.526   2.526   2.526   2.526   2.526   2.526   2.526   2.526   2.526   2.526   2.526
   206.71    2.526   2.526   2.526   2.526   2.526   2.526   2.526   2.526   2.526   2.526   2.526   2.526   2.526   2.526   2.526   2.526   2.526   2.526   2.526   2.526   2.526   2.526   2.526   2.526   2.526   2.526   2.526   2.526   2.526   2.526   2.526   2.526   2.526   2.526   2.526   2.526
   198.14    2.526   2.526   2.526   2.526   2.526   2.526   2.526   2.526   2.526   2.526   2.526   2.526   2.526   2.526   2.526   2.526   2.526   2.526   2.526   2.526   2.526   2.526   2.526   2.526   2.526   2.526   2.526   2.526   2.526   2.526   2.526   2.526   2.526   2.526   2.526   2.526
   189.57    2.526   2.526   2.526   2.526   2.526   2.526   2.526   2.526   2.526   2.526   2.526   2.526   2.526   2.526   2.526   2.526   2.526   2.526   2.526   2.526   2.526   2.526   2.526   2.526   2.526   2.526   2.526   2.526   2.526   2.526   2.526   2.526   2.526   2.526   2.526   2.526
   181.00    2.526   2.526   2.526   2.526   2.526   2.526   2.526   2.526   2.526   2.526   2.526   2.526   2.526   2.526   2.526   2.526   2.526   2.526   2.526   2.526   2.526   2.526   2.526   2.526   2.526   2.526   2.526   2.526   2.526   2.526   2.526   2.526   2.526   2.526   2.526   2.526
   172.43    2.526   2.526   2.526   2.526   2.526   2.526   2.526   2.526   2.526   2.526   2.526   2.526   2.526   2.526   2.526   2.526   2.526   2.526   2.526   2.526   2.526   2.526   2.526   2.526   2.526   2.526   2.526   2.526   2.526   2.526   2.526   2.526   2.526   2.526   2.526   2.526
   163.86    2.526   2.526   2.526   2.526   2.526   2.526   2.526   2.526   2.526   2.526   2.526   2.526   2.526   2.526   2.526   2.526   2.526   2.526   2.526   2.526   2.526   2.526   2.526   2.526   2.526   2.526   2.526   2.526   2.526   2.526   2.526   2.526   2.526   2.526   2.526   2.526
   155.29    2.526   2.526   2.526   2.526   2.526   2.526   2.526   2.526   2.526   2.526   2.526   2.526   2.526   2.526   2.526   2.526   2.526   2.526   2.526   2.526   2.526   2.526   2.526   2.526   2.526   2.526   2.526   2.526   2.526   2.526   2.526   2.526   2.526   2.526   2.526   2.526
   146.71    2.526   2.526   2.526   2.526   2.526   2.526   2.526   2.526   2.526   2.526   2.526   2.526   2.526   2.526   2.526   2.526   2.526   2.526   2.526   2.526   2.526   2.526   2.526   2.526   2.526   2.526   2.526   2.526   2.526   2.526   2.526   2.526   2.526   2.526   2.526   2.526
   138.14    2.526   2.526   2.526   2.526   2.526   2.526   2.526   2.526   2.526   2.526   2.526   2.526   2.526   2.526   2.526   2.526   2.526   2.526   2.526   2.526   2.526   2.526   2.526   2.526   2.526   2.526   2.526   2.526   2.526   2.526   2.526   2.526   2.526   2.526   2.526   2.526
   129.57    2.526   2.526   2.526   2.526   2.526   2.526   2.526   2.526   2.526   2.526   2.526   2.526   2.526   2.526   2.526   2.526   2.526   2.526   2.526   2.526   2.526   2.526   2.526   2.526   2.526   2.526   2.526   2.526   2.526   2.526   2.526   2.526   2.526   2.526   2.526   2.526
   121.00    2.526   2.526   2.526   2.526   2.526   2.526   2.526   2.526   2.526   2.526   2.526   2.526   2.526   2.526   2.526   2.526   2.526   2.526   2.526   2.526   2.526   2.526   2.526   2.526   2.526   2.526   2.526   2.526   2.526   2.526   2.526   2.526   2.526   2.526   2.526   2.526
   112.43    2.526   2.526   2.526   2.526   2.526   2.526   2.526   2.526   2.526   2.526   2.526   2.526   2.526   2.526   2.526   2.526   2.526   2.526   2.526   2.526   2.526   2.526   2.526   2.526   2.526   2.526   2.526   2.526   2.526   2.526   2.526   2.526   2.526   2.526   2.526   2.526
   103.86    2.526   2.526   2.526   2.526   2.526   2.526   2.526   2.526   2.526   2.526   2.526   2.526   2.526   2.526   2.526   2.526   2.526   2.526   2.526   2.526   2.526   2.526   2.526   2.526   2.526   2.526   2.526   2.526   2.526   2.526   2.526   2.526   2.526   2.526   2.526   2.526
    95.29    2.526   2.526   2.526   2.526   2.526   2.526   2.526   2.526   2.526   2.526   2.526   2.526   2.526   2.526   2.526   2.526   2.526   2.526   2.526   2.526   2.526   2.526   2.526   2.526   2.526   2.526   2.526   2.526   2.526   2.526   2.526   2.526   2.526   2.526   2.526   2.526
    86.71    2.526   2.526   2.526   2.526   2.526   2.526   2.526   2.526   2.526   2.526   2.526   2.526   2.526   2.526   2.526   2.526   2.526   2.526   2.526   2.526   2.526   2.526   2.526   2.526   2.526   2.526   2.526   2.526   2.526   2.526   2.526   2.526   2.526   2.526   2.526   2.526
    78.14    2.526   2.526   2.526   2.526   2.526   2.526   2.526   2.526   2.526   2.526   2.526   2.526   2.526   2.526   2.526   2.526   2.526   2.526   2.526   2.526   2.526   2.526   2.526   2.526   2.526   2.526   2.526   2.526   2.526   2.526   2.526   2.526   2.526   2.526   2.526   2.526
    69.57    2.526   2.526   2.526   2.526   2.526   2.526   2.526   2.526   2.526   2.526   2.526   2.526   2.526   2.526   2.526   2.526   2.526   2.526   2.526   2.526   2.526   2.526   2.526   2.526   2.526   2.526   2.526   2.526   2.526   2.526   2.526   2.526   2.526   2.526   2.526   2.526
    61.00    2.526   2.526   2.526   2.526   2.526   2.526   2.526   2.526   2.526   2.526   2.526   2.526   2.526   2.526   2.526   2.526   2.526   2.526   2.526   2.526   2.526   2.526   2.526   2.526   2.526   2.526   2.526   2.526   2.526   2.526   2.526   2.526   2.526   2.526   2.526   2.526
    52.43    2.526   2.526   2.526   2.526   2.526   2.526   2.526   2.526   2.526   2.526   2.526   2.526   2.526   2.526   2.526   2.526   2.526   2.526   2.526   2.526   2.526   2.526   2.526   2.526   2.526   2.526   2.526   2.526   2.526   2.526   2.526   2.526   2.526   2.526   2.526   2.526
    43.86    2.526   2.526   2.526   2.526   2.526   2.526   2.526   2.526   2.526   2.526   2.526   2.526   2.526   2.526   2.526   2.526   2.526   2.526   2.526   2.526   2.526   2.526   2.526   2.526   2.526   2.526   2.526   2.526   2.526   2.526   2.526   2.526   2.526   2.526   2.526   2.526
    35.29    2.526   2.526   2.526   2.526   2.526   2.526   2.526   2.526   2.526   2.526   2.526   2.526   2.526   2.526   2.526   2.526   2.526   2.526   2.526   2.526   2.526   2.526   2.526   2.526   2.526   2.526   2.526   2.526   2.526   2.526   2.526   2.526   2.526   2.526   2.526   2.526
    26.71    2.526   2.526   2.526   2.526   2.526   2.526   2.526   2.526   2.526   2.526   2.526   2.526   2.526   2.526   2.526   2.526   2.526   2.526   2.526   2.526   2.526   2.526   2.526   2.526   2.526   2.526   2.526   2.526   2.526   2.526   2.526   2.526   2.526   2.526   2.526   2.526
    18.14    2.526   2.526   2.526   2.526   2.526   2.526   2.526   2.526   2.526   2.526   2.526   2.526   2.526   2.526   2.526   2.526   2.526   2.526   2.526   2.526   2.526   2.526   2.526   2.526   2.526   2.526   2.526   2.526   2.526   2.526   2.526   2.526   2.526   2.526   2.526   2.526
     9.57    2.526   2.526   2.526   2.526   2.526   2.526   2.526   2.526   2.526   2.526   2.526   2.526   2.526   2.526   2.526   2.526   2.526   2.526   2.526   2.526   2.526   2.526   2.526   2.526   2.526   2.526   2.526   2.526   2.526   2.526   2.526   2.526   2.526   2.526   2.526   2.526
     1.00    2.526   2.526   2.526   2.526   2.526   2.526   2.526   2.526   2.526   2.526   2.526   2.526   2.526   2.526   2.526   2.526   2.526   2.526   2.526   2.526   2.526   2.526   2.526   2.526   2.526   2.526   2.526   2.526   2.526   2.526   2.526   2.526   2.526   2.526   2.526   2.526

   Mean standard deviation across all grid points:
      u component:    2.611 m/s
      v component:    2.526 m/s
      w component:    2.526 m/s


U-component (X) statistics from the interpolated hub point:

   Mean =  13.9623 m/s
   TI   =  17.0318 %


Normalizing Parameters for Binary Data (approximate statistics):

   UBar  =  13.9632 m/s
   TI(u) =  18.5762 %
   TI(v) =  18.0898 %
   TI(w) =  18.0898 %

   Height Offset =   0.0000 m
   Grid Base     =   1.0000 m

Creating a PERIODIC output file.


Processing complete.  117.45 CPU seconds used.
