
This summary file was generated by TurbSim (v2.00.07a-bjj, 14-Jun-2016) on 03-Nov-2023 at 03:24:06.


Runtime Options:

      3601  Random seed #1
    RANLUX  Type of random number generator
         F  Output binary HH turbulence parameters?
         F  Output formatted turbulence parameters?
         F  Output AeroDyn HH files?
         F  Output AeroDyn FF files?
         T  Output BLADED FF files?
         F  Output tower data?
         F  Output formatted FF files?
         F  Output coherent turbulence time step file?
         T  Clockwise rotation when looking downwind?
 0 -  NONE  IEC turbulence models scaled to exact specified standard deviation


Turbine/Model Specifications:

        36  Vertical grid-point matrix dimension
        36  Horizontal grid-point matrix dimension
     0.100  Time step [seconds]
   660.000  Analysis time [seconds]
   660.000  Usable output time [seconds]
   151.000  Hub height [m]
   300.000  Grid height [m]
   300.000  Grid width [m]
     0.000  Vertical flow angle [degrees]
     0.000  Horizontal flow angle [degrees]


Meteorological Boundary Conditions:

    IECVKM  IEC von Karman spectral model
         1  IEC standard: IEC 61400-1 Ed. 3: 2005
         A  IEC turbulence characteristic
       NTM  IEC Normal Turbulence Model
       N/A  IEC Extreme Turbulence Model (ETM) "c" parameter [m/s]
       PL   Wind profile type
   153.000  Reference height [m]
    16.000  Reference wind speed [m/s]
       N/A  Jet height [m]
     0.200  Power law exponent
     0.030  Surface roughness length [m]


Non-IEC Meteorological Boundary Conditions:

       N/A  Site latitude [degrees]
       N/A  Gradient Richardson number
       N/A  Friction or shear velocity [m/s]
       N/A  Mixing layer depth [m]
       N/A  Mean hub u'w' Reynolds stress
       N/A  Mean hub u'v' Reynolds stress
       N/A  Mean hub v'w' Reynolds stress


Spatial Coherence Models:

       IEC  u-component coherence model
      NONE  v-component coherence model
      NONE  w-component coherence model
(   12.000, 0.353E-03)  u-component coherence parameters
                   N/A  v-component coherence parameters
                   N/A  w-component coherence parameters
       N/A  Coherence exponent


You have requested that the following file(s) be generated:

   G:\2023\OpenWECDV1.0.0_x64\BaseLIne\wind\WindL_V_16_seed_3601.wnd (AeroDyn/BLADED full-field wnd file)


Turbulence Simulation Scaling Parameter Summary:

   Turbulence model used                            =  IEC von Karman
   Turbulence characteristic                        =  A
   IEC turbulence type                              =  Normal Turbulence Model
   IEC standard                                     =  IEC 61400-1 Ed. 3: 2005
   Mean wind speed at hub height                    =   15.958 m/s
   Expected value of turbulence intensity at 15 m/s =   16.000%
   Characteristic value of standard deviation       =    2.811 m/s
   Turbulence scale                                 =   42.000 m
   Isotropic integral scale                         =  147.000 m
   Characteristic value of hub turbulence intensity =   17.615%
   Gradient Richardson number                       =    0.000

   Wind profile type                                =  Power law
   Power law exponent                               =    0.200
   Mean shear across rotor disk                     =    0.042 (m/s)/m
   Assumed rotor diameter                           =  300.000 m
   Surface roughness length                         =    0.030 m

   Nyquist frequency of turbulent wind field        =    5.000 Hz

   Number of time steps in the FFT                  =     6600
   Number of time steps output                      =     6600
   Number of points simulated                       =     1297


Mean Flow Angles:

   Vertical   =   0.0 degrees
   Horizontal =   0.0 degrees

Mean Wind Speed Profile:

   Height    Wind Speed   Horizontal Angle  Vertical Angle  U-comp (X)   V-comp (Y)   W-comp (Z)
     (m)        (m/s)         (degrees)       (degrees)       (m/s)        (m/s)        (m/s)   
   ------    ----------   ----------------  --------------  ----------   ----------   ----------
    301.0       18.32            0.00            0.00         18.32         0.00         0.00
    292.4       18.21            0.00            0.00         18.21         0.00         0.00
    283.9       18.11            0.00            0.00         18.11         0.00         0.00
    275.3       17.99            0.00            0.00         17.99         0.00         0.00
    266.7       17.88            0.00            0.00         17.88         0.00         0.00
    258.1       17.76            0.00            0.00         17.76         0.00         0.00
    249.6       17.64            0.00            0.00         17.64         0.00         0.00
    241.0       17.52            0.00            0.00         17.52         0.00         0.00
    232.4       17.40            0.00            0.00         17.40         0.00         0.00
    223.9       17.27            0.00            0.00         17.27         0.00         0.00
    215.3       17.13            0.00            0.00         17.13         0.00         0.00
    206.7       16.99            0.00            0.00         16.99         0.00         0.00
    198.1       16.85            0.00            0.00         16.85         0.00         0.00
    189.6       16.70            0.00            0.00         16.70         0.00         0.00
    181.0       16.55            0.00            0.00         16.55         0.00         0.00
    172.4       16.39            0.00            0.00         16.39         0.00         0.00
    163.9       16.22            0.00            0.00         16.22         0.00         0.00
    155.3       16.05            0.00            0.00         16.05         0.00         0.00
    151.0       15.96            0.00            0.00         15.96         0.00         0.00
    146.7       15.87            0.00            0.00         15.87         0.00         0.00
    138.1       15.68            0.00            0.00         15.68         0.00         0.00
    129.6       15.48            0.00            0.00         15.48         0.00         0.00
    121.0       15.27            0.00            0.00         15.27         0.00         0.00
    112.4       15.04            0.00            0.00         15.04         0.00         0.00
    103.9       14.81            0.00            0.00         14.81         0.00         0.00
     95.3       14.55            0.00            0.00         14.55         0.00         0.00
     86.7       14.28            0.00            0.00         14.28         0.00         0.00
     78.1       13.99            0.00            0.00         13.99         0.00         0.00
     69.6       13.67            0.00            0.00         13.67         0.00         0.00
     61.0       13.31            0.00            0.00         13.31         0.00         0.00
     52.4       12.92            0.00            0.00         12.92         0.00         0.00
     43.9       12.46            0.00            0.00         12.46         0.00         0.00
     35.3       11.93            0.00            0.00         11.93         0.00         0.00
     26.7       11.29            0.00            0.00         11.29         0.00         0.00
     18.1       10.45            0.00            0.00         10.45         0.00         0.00
      9.6        9.19            0.00            0.00          9.19         0.00         0.00
      1.0        5.85            0.00            0.00          5.85         0.00         0.00


Harvested Random Seeds after Generation of the Random Numbers:

    119307688 K 1
            0 K 2


Hub-Height Simulated Turbulence Statistical Summary:

   Type of Wind        Min (m/s)   Mean (m/s)    Max (m/s)  Sigma (m/s)       TI (%)
   ----------------    ---------   ----------    ---------  -----------       ------
   Longitudinal (u)         6.42        15.96        23.59        2.653       16.627
   Lateral (v)             -8.25         0.00         8.61        2.762       17.306
   Vertical (w)            -8.62         0.00         9.66        2.762       17.306
   U component              6.42        15.96        23.59        2.653       16.627
   V component             -8.25         0.00         8.61        2.762       17.306
   W component             -8.62         0.00         9.66        2.762       17.306
   Horizontal (U&V)         6.48        16.19        23.69        2.655       16.392
   Total                    6.54        16.43        24.08        2.646       16.106

                       Min Reynolds     Mean Reynolds    Max Reynolds    Correlation
   Product             Stress (m/s)^2   Stress (m/s)^2   Stress (m/s)^2  Coefficient
   ----------------    --------------   --------------   --------------  -----------
   u'w'                    -38.765            -0.160            28.860        -0.022
   u'v'                    -31.286            -1.096            34.880        -0.150
   v'w'                    -38.342            -0.528            36.666        -0.069


   Friction Velocity (Ustar)  =      0.400 m/s
   Maximum Instantaneous TKE  =     51.509 (m/s)^2
   Maximum Instantaneous CTKE =     27.954 (m/s)^2


Grid Point Variance Summary:

   Y-coord -150.00 -141.43 -132.86 -124.29 -115.71 -107.14  -98.57  -90.00  -81.43  -72.86  -64.29  -55.71  -47.14  -38.57  -30.00  -21.43  -12.86   -4.29    4.29   12.86   21.43   30.00   38.57   47.14   55.71   64.29   72.86   81.43   90.00   98.57  107.14  115.71  124.29  132.86  141.43  150.00

   Height   Standard deviation at grid points for the u component:
   301.00    2.586   2.768   2.787   2.658   2.703   2.509   2.478   2.431   2.471   2.442   2.397   2.432   2.459   2.642   2.663   2.651   2.777   2.809   2.672   2.537   2.596   2.678   2.729   2.699   2.570   2.587   2.703   2.742   2.963   2.710   2.908   3.029   2.875   2.782   2.659   2.652
   292.43    2.702   2.718   2.587   2.662   2.518   2.419   2.304   2.257   2.330   2.357   2.432   2.579   2.556   2.583   2.594   2.668   2.687   2.644   2.699   2.633   2.623   2.699   2.770   2.764   2.652   2.492   2.617   2.687   2.803   2.780   2.789   2.834   2.762   2.828   2.592   2.483
   283.86    2.622   2.664   2.478   2.535   2.516   2.372   2.350   2.438   2.305   2.337   2.457   2.599   2.530   2.555   2.391   2.522   2.614   2.646   2.591   2.474   2.659   2.751   2.766   2.607   2.566   2.583   2.684   2.666   2.672   2.692   2.763   2.853   2.867   2.808   2.901   2.683
   275.29    2.652   2.534   2.546   2.405   2.446   2.327   2.297   2.466   2.502   2.311   2.366   2.562   2.636   2.547   2.340   2.509   2.698   2.545   2.572   2.507   2.659   2.582   2.717   2.550   2.711   2.551   2.651   2.558   2.530   2.632   2.790   2.714   2.852   2.799   2.810   2.780
   266.71    2.470   2.388   2.614   2.485   2.465   2.517   2.566   2.545   2.615   2.614   2.560   2.559   2.575   2.475   2.448   2.450   2.676   2.801   2.748   2.689   2.705   2.782   2.722   2.752   2.786   2.841   2.497   2.501   2.610   2.605   2.799   2.734   2.717   2.681   2.740   2.702
   258.14    2.604   2.589   2.680   2.644   2.595   2.483   2.469   2.622   2.684   2.755   2.672   2.560   2.549   2.609   2.676   2.724   2.759   2.767   2.669   2.693   2.751   2.704   2.905   2.879   2.944   2.938   2.786   2.810   2.852   2.745   2.794   2.713   2.680   2.565   2.753   2.604
   249.57    2.586   2.570   2.559   2.744   2.612   2.815   2.716   2.713   2.735   2.724   2.633   2.513   2.450   2.643   2.773   2.907   2.830   2.739   2.549   2.684   2.695   2.771   2.776   2.947   2.929   3.050   2.838   2.891   2.790   2.801   2.752   2.725   2.634   2.798   2.788   2.679
   241.00    2.682   2.581   2.456   2.535   2.648   2.653   2.789   2.786   2.810   2.715   2.787   2.591   2.655   2.622   2.773   2.817   2.889   2.787   2.690   2.671   2.659   2.700   2.766   2.881   2.850   2.967   2.809   2.720   2.773   2.718   2.762   2.596   2.723   2.752   2.825   2.848
   232.43    2.655   2.553   2.533   2.558   2.614   2.799   2.748   2.765   2.832   2.862   2.673   2.698   2.652   2.571   2.796   2.917   2.823   2.776   2.742   2.664   2.675   2.738   2.866   2.725   2.822   2.940   2.821   2.876   2.738   2.835   2.686   2.491   2.785   2.795   2.935   2.959
   223.86    2.548   2.561   2.724   2.703   2.582   2.593   2.796   2.682   2.713   2.731   2.802   2.821   2.840   2.778   2.773   2.734   2.630   2.700   2.867   2.743   2.601   2.708   2.903   2.986   2.951   2.965   2.890   2.731   2.701   2.771   2.825   2.700   2.837   2.904   2.885   2.996
   215.29    2.524   2.469   2.501   2.589   2.549   2.611   2.689   2.646   2.718   2.884   3.086   2.965   3.129   2.937   2.790   2.633   2.583   2.745   2.868   2.793   2.787   2.819   2.871   2.698   2.984   2.860   2.695   2.780   2.698   2.803   2.549   2.694   2.915   2.972   2.951   3.057
   206.71    2.635   2.610   2.540   2.700   2.684   2.573   2.655   2.794   2.723   2.905   3.015   3.003   3.104   3.064   2.841   2.528   2.530   2.630   2.757   2.526   2.680   2.966   2.920   2.911   2.991   2.814   2.741   2.888   2.832   2.890   2.764   2.644   2.894   2.997   2.907   3.005
   198.14    2.662   2.684   2.645   2.610   2.698   2.618   2.708   2.815   2.814   2.896   2.995   3.105   3.232   2.940   2.699   2.562   2.585   2.663   2.574   2.607   2.774   2.893   2.943   2.995   3.086   3.027   2.918   2.918   2.944   3.019   2.942   3.046   3.032   3.111   3.044   3.037
   189.57    2.554   2.767   2.644   2.739   2.719   2.598   2.684   2.791   2.725   2.820   2.969   3.181   3.306   3.023   2.891   2.800   2.677   2.561   2.535   2.536   2.683   2.787   2.954   2.732   3.110   3.141   3.043   2.770   2.790   2.851   2.978   2.838   3.084   3.042   3.219   3.225
   181.00    2.756   2.724   2.750   2.753   2.646   2.753   2.897   2.685   2.780   2.822   3.038   3.058   3.058   3.018   2.873   2.801   2.779   2.599   2.530   2.482   2.506   2.808   2.754   2.924   3.019   3.071   3.126   2.882   2.835   2.774   2.945   2.965   2.995   2.817   2.939   3.127
   172.43    2.732   2.699   2.481   2.775   2.796   2.899   2.842   2.785   2.936   3.051   3.136   2.851   2.849   2.781   2.956   2.859   2.839   2.666   2.435   2.317   2.484   2.647   2.745   2.879   3.025   3.010   3.101   2.899   2.922   2.950   2.953   2.869   2.807   2.864   2.987   3.030
   163.86    2.662   2.650   2.489   2.574   2.552   2.715   2.801   2.775   2.792   2.929   3.044   3.045   3.081   3.030   2.968   2.890   2.814   2.706   2.607   2.461   2.514   2.432   2.520   2.915   2.973   2.986   3.155   3.060   3.047   3.091   2.969   2.898   2.965   2.895   2.776   2.880
   155.29    2.548   2.616   2.696   2.548   2.627   2.638   2.659   2.747   2.758   2.821   2.837   2.828   2.837   3.022   2.912   2.935   2.862   2.739   2.564   2.622   2.570   2.537   2.613   2.916   3.084   3.136   3.210   3.148   3.183   3.260   2.963   2.798   2.922   2.996   3.032   3.123
   146.71    2.473   2.622   2.634   2.501   2.659   2.706   2.761   2.788   2.784   2.872   2.708   2.702   2.729   2.861   2.806   2.840   2.906   2.788   2.791   2.655   2.561   2.573   2.600   2.774   3.177   3.028   2.811   3.020   3.030   3.022   3.056   2.854   3.179   3.051   2.992   3.149
   138.14    2.466   2.555   2.642   2.664   2.621   2.665   2.700   2.669   2.777   2.683   2.783   2.622   2.693   2.730   2.881   2.826   2.898   2.626   2.581   2.682   2.682   2.707   2.659   2.883   2.948   2.929   2.864   2.953   2.993   3.037   3.053   3.088   3.220   3.095   3.086   3.136
   129.57    2.657   2.546   2.600   2.857   2.751   2.682   2.746   2.616   2.697   2.681   2.850   2.808   2.752   2.873   2.849   2.791   2.805   2.640   2.756   2.635   2.628   2.681   2.649   2.873   2.792   2.937   2.892   2.856   2.986   2.964   2.964   2.908   2.849   3.005   3.159   3.112
   121.00    2.741   2.634   2.817   2.678   2.865   2.840   2.740   2.673   2.673   2.652   2.788   2.730   2.722   2.700   2.846   2.852   2.918   2.756   2.686   2.624   2.690   2.636   2.736   2.761   2.799   2.743   2.764   2.761   2.775   2.839   2.946   3.064   2.827   2.814   3.092   3.061
   112.43    2.769   2.707   2.746   2.719   2.742   2.741   2.871   2.847   2.739   2.971   2.942   2.808   2.745   2.942   2.832   2.778   2.809   2.778   2.787   2.579   2.694   2.687   2.778   2.966   2.857   2.735   2.628   2.625   2.631   2.844   2.973   2.859   2.893   2.850   2.970   2.995
   103.86    2.740   2.844   2.932   2.732   2.878   2.897   3.016   2.903   2.882   2.917   3.015   2.816   2.833   2.827   2.889   2.787   2.817   2.818   2.769   2.742   2.635   2.593   2.765   2.754   2.867   2.747   2.642   2.553   2.598   2.783   2.886   2.850   2.612   2.763   2.788   2.938
    95.29    2.780   2.801   2.843   2.904   2.940   2.874   2.969   2.860   2.795   2.896   2.926   2.858   2.926   2.858   2.772   2.768   2.995   2.745   2.865   2.683   2.682   2.636   2.684   2.688   2.760   2.780   2.811   2.645   2.677   2.670   2.742   2.665   2.626   2.724   2.815   2.872
    86.71    2.884   2.886   2.863   2.807   2.922   2.960   2.878   2.875   2.757   2.778   2.795   2.977   2.935   2.967   2.935   2.827   2.959   2.910   2.838   2.669   2.585   2.627   2.719   2.499   2.793   2.739   2.667   2.742   2.631   2.686   2.786   2.885   2.767   2.842   2.880   2.908
    78.14    2.862   2.841   2.791   2.835   2.851   2.767   2.812   2.729   2.805   2.681   2.693   2.724   2.691   2.904   2.861   2.962   3.006   2.821   2.712   2.666   2.602   2.586   2.587   2.747   2.675   2.745   2.667   2.495   2.774   3.050   3.015   2.974   2.884   2.790   2.941   3.081
    69.57    2.691   2.649   2.736   2.723   2.703   2.644   2.615   2.671   2.666   2.790   2.835   2.691   2.797   2.858   2.953   2.885   2.863   2.838   2.924   2.777   2.577   2.600   2.454   2.731   2.878   2.673   2.661   2.597   2.650   2.795   2.986   3.070   3.014   2.854   2.972   3.065
    61.00    2.675   2.769   2.745   2.681   2.684   2.645   2.745   2.771   2.675   2.635   2.642   2.755   2.888   2.814   2.791   2.731   2.645   2.692   2.784   2.779   2.800   2.706   2.695   2.841   2.772   2.721   2.705   2.619   2.626   2.902   3.020   3.136   3.074   3.201   3.326   3.259
    52.43    2.661   2.703   2.543   2.596   2.606   2.634   2.720   2.604   2.721   2.773   2.755   2.796   2.929   2.799   2.830   2.768   2.692   2.646   2.822   2.794   2.764   2.564   2.924   2.755   2.866   2.801   2.778   2.720   2.752   2.973   3.131   3.186   3.137   3.187   3.247   3.328
    43.86    2.679   2.477   2.567   2.675   2.600   2.684   2.665   2.676   2.757   2.752   2.829   2.968   2.861   2.692   2.654   2.702   2.714   2.738   2.804   2.790   2.604   2.645   2.829   2.873   2.729   2.857   2.845   2.821   2.931   3.019   2.958   3.200   3.171   3.131   3.118   3.193
    35.29    2.705   2.571   2.566   2.595   2.561   2.579   2.819   2.930   2.932   2.838   2.672   2.823   2.904   2.829   2.600   2.653   2.668   2.749   2.844   2.822   2.753   2.728   2.640   2.653   2.626   2.906   2.943   2.955   3.116   2.980   3.066   3.332   3.294   3.164   3.304   3.115
    26.71    2.673   2.652   2.691   2.597   2.637   2.644   2.739   2.792   2.806   2.796   2.902   2.761   2.855   2.789   2.638   2.651   2.717   2.819   2.920   2.835   2.700   2.769   2.752   2.704   2.587   2.827   2.841   2.810   2.935   3.108   3.191   3.239   3.347   3.409   3.148   3.032
    18.14    2.763   2.564   2.723   2.680   2.672   2.718   2.706   2.796   3.044   2.898   2.737   2.914   3.035   2.742   2.568   2.679   2.822   2.798   2.804   2.865   2.779   2.764   2.640   2.729   2.718   2.752   2.752   2.679   2.783   3.182   3.242   3.317   3.310   3.155   3.147   3.232
     9.57    2.727   2.668   2.634   2.547   2.902   2.729   2.866   2.852   2.946   2.953   2.803   2.940   3.043   2.834   2.697   2.698   2.831   2.746   2.712   2.849   2.885   2.771   2.651   2.733   2.874   2.818   2.711   2.790   2.818   3.038   3.110   3.037   3.167   3.151   3.026   3.263
     1.00    2.750   2.733   2.635   2.587   2.687   2.795   2.750   2.784   2.998   2.783   2.766   2.807   2.767   2.764   2.847   2.851   2.915   2.897   2.642   2.792   2.838   2.687   2.910   2.790   2.917   2.827   2.792   2.806   2.867   2.890   3.037   3.034   3.060   3.121   3.288   3.271

   Height   Standard deviation at grid points for the v component:
   301.00    2.762   2.762   2.762   2.762   2.762   2.762   2.762   2.762   2.762   2.762   2.762   2.762   2.762   2.762   2.762   2.762   2.762   2.762   2.762   2.762   2.762   2.762   2.762   2.762   2.762   2.762   2.762   2.762   2.762   2.762   2.762   2.762   2.762   2.762   2.762   2.762
   292.43    2.762   2.762   2.762   2.762   2.762   2.762   2.762   2.762   2.762   2.762   2.762   2.762   2.762   2.762   2.762   2.762   2.762   2.762   2.762   2.762   2.762   2.762   2.762   2.762   2.762   2.762   2.762   2.762   2.762   2.762   2.762   2.762   2.762   2.762   2.762   2.762
   283.86    2.762   2.762   2.762   2.762   2.762   2.762   2.762   2.762   2.762   2.762   2.762   2.762   2.762   2.762   2.762   2.762   2.762   2.762   2.762   2.762   2.762   2.762   2.762   2.762   2.762   2.762   2.762   2.762   2.762   2.762   2.762   2.762   2.762   2.762   2.762   2.762
   275.29    2.762   2.762   2.762   2.762   2.762   2.762   2.762   2.762   2.762   2.762   2.762   2.762   2.762   2.762   2.762   2.762   2.762   2.762   2.762   2.762   2.762   2.762   2.762   2.762   2.762   2.762   2.762   2.762   2.762   2.762   2.762   2.762   2.762   2.762   2.762   2.762
   266.71    2.762   2.762   2.762   2.762   2.762   2.762   2.762   2.762   2.762   2.762   2.762   2.762   2.762   2.762   2.762   2.762   2.762   2.762   2.762   2.762   2.762   2.762   2.762   2.762   2.762   2.762   2.762   2.762   2.762   2.762   2.762   2.762   2.762   2.762   2.762   2.762
   258.14    2.762   2.762   2.762   2.762   2.762   2.762   2.762   2.762   2.762   2.762   2.762   2.762   2.762   2.762   2.762   2.762   2.762   2.762   2.762   2.762   2.762   2.762   2.762   2.762   2.762   2.762   2.762   2.762   2.762   2.762   2.762   2.762   2.762   2.762   2.762   2.762
   249.57    2.762   2.762   2.762   2.762   2.762   2.762   2.762   2.762   2.762   2.762   2.762   2.762   2.762   2.762   2.762   2.762   2.762   2.762   2.762   2.762   2.762   2.762   2.762   2.762   2.762   2.762   2.762   2.762   2.762   2.762   2.762   2.762   2.762   2.762   2.762   2.762
   241.00    2.762   2.762   2.762   2.762   2.762   2.762   2.762   2.762   2.762   2.762   2.762   2.762   2.762   2.762   2.762   2.762   2.762   2.762   2.762   2.762   2.762   2.762   2.762   2.762   2.762   2.762   2.762   2.762   2.762   2.762   2.762   2.762   2.762   2.762   2.762   2.762
   232.43    2.762   2.762   2.762   2.762   2.762   2.762   2.762   2.762   2.762   2.762   2.762   2.762   2.762   2.762   2.762   2.762   2.762   2.762   2.762   2.762   2.762   2.762   2.762   2.762   2.762   2.762   2.762   2.762   2.762   2.762   2.762   2.762   2.762   2.762   2.762   2.762
   223.86    2.762   2.762   2.762   2.762   2.762   2.762   2.762   2.762   2.762   2.762   2.762   2.762   2.762   2.762   2.762   2.762   2.762   2.762   2.762   2.762   2.762   2.762   2.762   2.762   2.762   2.762   2.762   2.762   2.762   2.762   2.762   2.762   2.762   2.762   2.762   2.762
   215.29    2.762   2.762   2.762   2.762   2.762   2.762   2.762   2.762   2.762   2.762   2.762   2.762   2.762   2.762   2.762   2.762   2.762   2.762   2.762   2.762   2.762   2.762   2.762   2.762   2.762   2.762   2.762   2.762   2.762   2.762   2.762   2.762   2.762   2.762   2.762   2.762
   206.71    2.762   2.762   2.762   2.762   2.762   2.762   2.762   2.762   2.762   2.762   2.762   2.762   2.762   2.762   2.762   2.762   2.762   2.762   2.762   2.762   2.762   2.762   2.762   2.762   2.762   2.762   2.762   2.762   2.762   2.762   2.762   2.762   2.762   2.762   2.762   2.762
   198.14    2.762   2.762   2.762   2.762   2.762   2.762   2.762   2.762   2.762   2.762   2.762   2.762   2.762   2.762   2.762   2.762   2.762   2.762   2.762   2.762   2.762   2.762   2.762   2.762   2.762   2.762   2.762   2.762   2.762   2.762   2.762   2.762   2.762   2.762   2.762   2.762
   189.57    2.762   2.762   2.762   2.762   2.762   2.762   2.762   2.762   2.762   2.762   2.762   2.762   2.762   2.762   2.762   2.762   2.762   2.762   2.762   2.762   2.762   2.762   2.762   2.762   2.762   2.762   2.762   2.762   2.762   2.762   2.762   2.762   2.762   2.762   2.762   2.762
   181.00    2.762   2.762   2.762   2.762   2.762   2.762   2.762   2.762   2.762   2.762   2.762   2.762   2.762   2.762   2.762   2.762   2.762   2.762   2.762   2.762   2.762   2.762   2.762   2.762   2.762   2.762   2.762   2.762   2.762   2.762   2.762   2.762   2.762   2.762   2.762   2.762
   172.43    2.762   2.762   2.762   2.762   2.762   2.762   2.762   2.762   2.762   2.762   2.762   2.762   2.762   2.762   2.762   2.762   2.762   2.762   2.762   2.762   2.762   2.762   2.762   2.762   2.762   2.762   2.762   2.762   2.762   2.762   2.762   2.762   2.762   2.762   2.762   2.762
   163.86    2.762   2.762   2.762   2.762   2.762   2.762   2.762   2.762   2.762   2.762   2.762   2.762   2.762   2.762   2.762   2.762   2.762   2.762   2.762   2.762   2.762   2.762   2.762   2.762   2.762   2.762   2.762   2.762   2.762   2.762   2.762   2.762   2.762   2.762   2.762   2.762
   155.29    2.762   2.762   2.762   2.762   2.762   2.762   2.762   2.762   2.762   2.762   2.762   2.762   2.762   2.762   2.762   2.762   2.762   2.762   2.762   2.762   2.762   2.762   2.762   2.762   2.762   2.762   2.762   2.762   2.762   2.762   2.762   2.762   2.762   2.762   2.762   2.762
   146.71    2.762   2.762   2.762   2.762   2.762   2.762   2.762   2.762   2.762   2.762   2.762   2.762   2.762   2.762   2.762   2.762   2.762   2.762   2.762   2.762   2.762   2.762   2.762   2.762   2.762   2.762   2.762   2.762   2.762   2.762   2.762   2.762   2.762   2.762   2.762   2.762
   138.14    2.762   2.762   2.762   2.762   2.762   2.762   2.762   2.762   2.762   2.762   2.762   2.762   2.762   2.762   2.762   2.762   2.762   2.762   2.762   2.762   2.762   2.762   2.762   2.762   2.762   2.762   2.762   2.762   2.762   2.762   2.762   2.762   2.762   2.762   2.762   2.762
   129.57    2.762   2.762   2.762   2.762   2.762   2.762   2.762   2.762   2.762   2.762   2.762   2.762   2.762   2.762   2.762   2.762   2.762   2.762   2.762   2.762   2.762   2.762   2.762   2.762   2.762   2.762   2.762   2.762   2.762   2.762   2.762   2.762   2.762   2.762   2.762   2.762
   121.00    2.762   2.762   2.762   2.762   2.762   2.762   2.762   2.762   2.762   2.762   2.762   2.762   2.762   2.762   2.762   2.762   2.762   2.762   2.762   2.762   2.762   2.762   2.762   2.762   2.762   2.762   2.762   2.762   2.762   2.762   2.762   2.762   2.762   2.762   2.762   2.762
   112.43    2.762   2.762   2.762   2.762   2.762   2.762   2.762   2.762   2.762   2.762   2.762   2.762   2.762   2.762   2.762   2.762   2.762   2.762   2.762   2.762   2.762   2.762   2.762   2.762   2.762   2.762   2.762   2.762   2.762   2.762   2.762   2.762   2.762   2.762   2.762   2.762
   103.86    2.762   2.762   2.762   2.762   2.762   2.762   2.762   2.762   2.762   2.762   2.762   2.762   2.762   2.762   2.762   2.762   2.762   2.762   2.762   2.762   2.762   2.762   2.762   2.762   2.762   2.762   2.762   2.762   2.762   2.762   2.762   2.762   2.762   2.762   2.762   2.762
    95.29    2.762   2.762   2.762   2.762   2.762   2.762   2.762   2.762   2.762   2.762   2.762   2.762   2.762   2.762   2.762   2.762   2.762   2.762   2.762   2.762   2.762   2.762   2.762   2.762   2.762   2.762   2.762   2.762   2.762   2.762   2.762   2.762   2.762   2.762   2.762   2.762
    86.71    2.762   2.762   2.762   2.762   2.762   2.762   2.762   2.762   2.762   2.762   2.762   2.762   2.762   2.762   2.762   2.762   2.762   2.762   2.762   2.762   2.762   2.762   2.762   2.762   2.762   2.762   2.762   2.762   2.762   2.762   2.762   2.762   2.762   2.762   2.762   2.762
    78.14    2.762   2.762   2.762   2.762   2.762   2.762   2.762   2.762   2.762   2.762   2.762   2.762   2.762   2.762   2.762   2.762   2.762   2.762   2.762   2.762   2.762   2.762   2.762   2.762   2.762   2.762   2.762   2.762   2.762   2.762   2.762   2.762   2.762   2.762   2.762   2.762
    69.57    2.762   2.762   2.762   2.762   2.762   2.762   2.762   2.762   2.762   2.762   2.762   2.762   2.762   2.762   2.762   2.762   2.762   2.762   2.762   2.762   2.762   2.762   2.762   2.762   2.762   2.762   2.762   2.762   2.762   2.762   2.762   2.762   2.762   2.762   2.762   2.762
    61.00    2.762   2.762   2.762   2.762   2.762   2.762   2.762   2.762   2.762   2.762   2.762   2.762   2.762   2.762   2.762   2.762   2.762   2.762   2.762   2.762   2.762   2.762   2.762   2.762   2.762   2.762   2.762   2.762   2.762   2.762   2.762   2.762   2.762   2.762   2.762   2.762
    52.43    2.762   2.762   2.762   2.762   2.762   2.762   2.762   2.762   2.762   2.762   2.762   2.762   2.762   2.762   2.762   2.762   2.762   2.762   2.762   2.762   2.762   2.762   2.762   2.762   2.762   2.762   2.762   2.762   2.762   2.762   2.762   2.762   2.762   2.762   2.762   2.762
    43.86    2.762   2.762   2.762   2.762   2.762   2.762   2.762   2.762   2.762   2.762   2.762   2.762   2.762   2.762   2.762   2.762   2.762   2.762   2.762   2.762   2.762   2.762   2.762   2.762   2.762   2.762   2.762   2.762   2.762   2.762   2.762   2.762   2.762   2.762   2.762   2.762
    35.29    2.762   2.762   2.762   2.762   2.762   2.762   2.762   2.762   2.762   2.762   2.762   2.762   2.762   2.762   2.762   2.762   2.762   2.762   2.762   2.762   2.762   2.762   2.762   2.762   2.762   2.762   2.762   2.762   2.762   2.762   2.762   2.762   2.762   2.762   2.762   2.762
    26.71    2.762   2.762   2.762   2.762   2.762   2.762   2.762   2.762   2.762   2.762   2.762   2.762   2.762   2.762   2.762   2.762   2.762   2.762   2.762   2.762   2.762   2.762   2.762   2.762   2.762   2.762   2.762   2.762   2.762   2.762   2.762   2.762   2.762   2.762   2.762   2.762
    18.14    2.762   2.762   2.762   2.762   2.762   2.762   2.762   2.762   2.762   2.762   2.762   2.762   2.762   2.762   2.762   2.762   2.762   2.762   2.762   2.762   2.762   2.762   2.762   2.762   2.762   2.762   2.762   2.762   2.762   2.762   2.762   2.762   2.762   2.762   2.762   2.762
     9.57    2.762   2.762   2.762   2.762   2.762   2.762   2.762   2.762   2.762   2.762   2.762   2.762   2.762   2.762   2.762   2.762   2.762   2.762   2.762   2.762   2.762   2.762   2.762   2.762   2.762   2.762   2.762   2.762   2.762   2.762   2.762   2.762   2.762   2.762   2.762   2.762
     1.00    2.762   2.762   2.762   2.762   2.762   2.762   2.762   2.762   2.762   2.762   2.762   2.762   2.762   2.762   2.762   2.762   2.762   2.762   2.762   2.762   2.762   2.762   2.762   2.762   2.762   2.762   2.762   2.762   2.762   2.762   2.762   2.762   2.762   2.762   2.762   2.762

   Height   Standard deviation at grid points for the w component:
   301.00    2.762   2.762   2.762   2.762   2.762   2.762   2.762   2.762   2.762   2.762   2.762   2.762   2.762   2.762   2.762   2.762   2.762   2.762   2.762   2.762   2.762   2.762   2.762   2.762   2.762   2.762   2.762   2.762   2.762   2.762   2.762   2.762   2.762   2.762   2.762   2.762
   292.43    2.762   2.762   2.762   2.762   2.762   2.762   2.762   2.762   2.762   2.762   2.762   2.762   2.762   2.762   2.762   2.762   2.762   2.762   2.762   2.762   2.762   2.762   2.762   2.762   2.762   2.762   2.762   2.762   2.762   2.762   2.762   2.762   2.762   2.762   2.762   2.762
   283.86    2.762   2.762   2.762   2.762   2.762   2.762   2.762   2.762   2.762   2.762   2.762   2.762   2.762   2.762   2.762   2.762   2.762   2.762   2.762   2.762   2.762   2.762   2.762   2.762   2.762   2.762   2.762   2.762   2.762   2.762   2.762   2.762   2.762   2.762   2.762   2.762
   275.29    2.762   2.762   2.762   2.762   2.762   2.762   2.762   2.762   2.762   2.762   2.762   2.762   2.762   2.762   2.762   2.762   2.762   2.762   2.762   2.762   2.762   2.762   2.762   2.762   2.762   2.762   2.762   2.762   2.762   2.762   2.762   2.762   2.762   2.762   2.762   2.762
   266.71    2.762   2.762   2.762   2.762   2.762   2.762   2.762   2.762   2.762   2.762   2.762   2.762   2.762   2.762   2.762   2.762   2.762   2.762   2.762   2.762   2.762   2.762   2.762   2.762   2.762   2.762   2.762   2.762   2.762   2.762   2.762   2.762   2.762   2.762   2.762   2.762
   258.14    2.762   2.762   2.762   2.762   2.762   2.762   2.762   2.762   2.762   2.762   2.762   2.762   2.762   2.762   2.762   2.762   2.762   2.762   2.762   2.762   2.762   2.762   2.762   2.762   2.762   2.762   2.762   2.762   2.762   2.762   2.762   2.762   2.762   2.762   2.762   2.762
   249.57    2.762   2.762   2.762   2.762   2.762   2.762   2.762   2.762   2.762   2.762   2.762   2.762   2.762   2.762   2.762   2.762   2.762   2.762   2.762   2.762   2.762   2.762   2.762   2.762   2.762   2.762   2.762   2.762   2.762   2.762   2.762   2.762   2.762   2.762   2.762   2.762
   241.00    2.762   2.762   2.762   2.762   2.762   2.762   2.762   2.762   2.762   2.762   2.762   2.762   2.762   2.762   2.762   2.762   2.762   2.762   2.762   2.762   2.762   2.762   2.762   2.762   2.762   2.762   2.762   2.762   2.762   2.762   2.762   2.762   2.762   2.762   2.762   2.762
   232.43    2.762   2.762   2.762   2.762   2.762   2.762   2.762   2.762   2.762   2.762   2.762   2.762   2.762   2.762   2.762   2.762   2.762   2.762   2.762   2.762   2.762   2.762   2.762   2.762   2.762   2.762   2.762   2.762   2.762   2.762   2.762   2.762   2.762   2.762   2.762   2.762
   223.86    2.762   2.762   2.762   2.762   2.762   2.762   2.762   2.762   2.762   2.762   2.762   2.762   2.762   2.762   2.762   2.762   2.762   2.762   2.762   2.762   2.762   2.762   2.762   2.762   2.762   2.762   2.762   2.762   2.762   2.762   2.762   2.762   2.762   2.762   2.762   2.762
   215.29    2.762   2.762   2.762   2.762   2.762   2.762   2.762   2.762   2.762   2.762   2.762   2.762   2.762   2.762   2.762   2.762   2.762   2.762   2.762   2.762   2.762   2.762   2.762   2.762   2.762   2.762   2.762   2.762   2.762   2.762   2.762   2.762   2.762   2.762   2.762   2.762
   206.71    2.762   2.762   2.762   2.762   2.762   2.762   2.762   2.762   2.762   2.762   2.762   2.762   2.762   2.762   2.762   2.762   2.762   2.762   2.762   2.762   2.762   2.762   2.762   2.762   2.762   2.762   2.762   2.762   2.762   2.762   2.762   2.762   2.762   2.762   2.762   2.762
   198.14    2.762   2.762   2.762   2.762   2.762   2.762   2.762   2.762   2.762   2.762   2.762   2.762   2.762   2.762   2.762   2.762   2.762   2.762   2.762   2.762   2.762   2.762   2.762   2.762   2.762   2.762   2.762   2.762   2.762   2.762   2.762   2.762   2.762   2.762   2.762   2.762
   189.57    2.762   2.762   2.762   2.762   2.762   2.762   2.762   2.762   2.762   2.762   2.762   2.762   2.762   2.762   2.762   2.762   2.762   2.762   2.762   2.762   2.762   2.762   2.762   2.762   2.762   2.762   2.762   2.762   2.762   2.762   2.762   2.762   2.762   2.762   2.762   2.762
   181.00    2.762   2.762   2.762   2.762   2.762   2.762   2.762   2.762   2.762   2.762   2.762   2.762   2.762   2.762   2.762   2.762   2.762   2.762   2.762   2.762   2.762   2.762   2.762   2.762   2.762   2.762   2.762   2.762   2.762   2.762   2.762   2.762   2.762   2.762   2.762   2.762
   172.43    2.762   2.762   2.762   2.762   2.762   2.762   2.762   2.762   2.762   2.762   2.762   2.762   2.762   2.762   2.762   2.762   2.762   2.762   2.762   2.762   2.762   2.762   2.762   2.762   2.762   2.762   2.762   2.762   2.762   2.762   2.762   2.762   2.762   2.762   2.762   2.762
   163.86    2.762   2.762   2.762   2.762   2.762   2.762   2.762   2.762   2.762   2.762   2.762   2.762   2.762   2.762   2.762   2.762   2.762   2.762   2.762   2.762   2.762   2.762   2.762   2.762   2.762   2.762   2.762   2.762   2.762   2.762   2.762   2.762   2.762   2.762   2.762   2.762
   155.29    2.762   2.762   2.762   2.762   2.762   2.762   2.762   2.762   2.762   2.762   2.762   2.762   2.762   2.762   2.762   2.762   2.762   2.762   2.762   2.762   2.762   2.762   2.762   2.762   2.762   2.762   2.762   2.762   2.762   2.762   2.762   2.762   2.762   2.762   2.762   2.762
   146.71    2.762   2.762   2.762   2.762   2.762   2.762   2.762   2.762   2.762   2.762   2.762   2.762   2.762   2.762   2.762   2.762   2.762   2.762   2.762   2.762   2.762   2.762   2.762   2.762   2.762   2.762   2.762   2.762   2.762   2.762   2.762   2.762   2.762   2.762   2.762   2.762
   138.14    2.762   2.762   2.762   2.762   2.762   2.762   2.762   2.762   2.762   2.762   2.762   2.762   2.762   2.762   2.762   2.762   2.762   2.762   2.762   2.762   2.762   2.762   2.762   2.762   2.762   2.762   2.762   2.762   2.762   2.762   2.762   2.762   2.762   2.762   2.762   2.762
   129.57    2.762   2.762   2.762   2.762   2.762   2.762   2.762   2.762   2.762   2.762   2.762   2.762   2.762   2.762   2.762   2.762   2.762   2.762   2.762   2.762   2.762   2.762   2.762   2.762   2.762   2.762   2.762   2.762   2.762   2.762   2.762   2.762   2.762   2.762   2.762   2.762
   121.00    2.762   2.762   2.762   2.762   2.762   2.762   2.762   2.762   2.762   2.762   2.762   2.762   2.762   2.762   2.762   2.762   2.762   2.762   2.762   2.762   2.762   2.762   2.762   2.762   2.762   2.762   2.762   2.762   2.762   2.762   2.762   2.762   2.762   2.762   2.762   2.762
   112.43    2.762   2.762   2.762   2.762   2.762   2.762   2.762   2.762   2.762   2.762   2.762   2.762   2.762   2.762   2.762   2.762   2.762   2.762   2.762   2.762   2.762   2.762   2.762   2.762   2.762   2.762   2.762   2.762   2.762   2.762   2.762   2.762   2.762   2.762   2.762   2.762
   103.86    2.762   2.762   2.762   2.762   2.762   2.762   2.762   2.762   2.762   2.762   2.762   2.762   2.762   2.762   2.762   2.762   2.762   2.762   2.762   2.762   2.762   2.762   2.762   2.762   2.762   2.762   2.762   2.762   2.762   2.762   2.762   2.762   2.762   2.762   2.762   2.762
    95.29    2.762   2.762   2.762   2.762   2.762   2.762   2.762   2.762   2.762   2.762   2.762   2.762   2.762   2.762   2.762   2.762   2.762   2.762   2.762   2.762   2.762   2.762   2.762   2.762   2.762   2.762   2.762   2.762   2.762   2.762   2.762   2.762   2.762   2.762   2.762   2.762
    86.71    2.762   2.762   2.762   2.762   2.762   2.762   2.762   2.762   2.762   2.762   2.762   2.762   2.762   2.762   2.762   2.762   2.762   2.762   2.762   2.762   2.762   2.762   2.762   2.762   2.762   2.762   2.762   2.762   2.762   2.762   2.762   2.762   2.762   2.762   2.762   2.762
    78.14    2.762   2.762   2.762   2.762   2.762   2.762   2.762   2.762   2.762   2.762   2.762   2.762   2.762   2.762   2.762   2.762   2.762   2.762   2.762   2.762   2.762   2.762   2.762   2.762   2.762   2.762   2.762   2.762   2.762   2.762   2.762   2.762   2.762   2.762   2.762   2.762
    69.57    2.762   2.762   2.762   2.762   2.762   2.762   2.762   2.762   2.762   2.762   2.762   2.762   2.762   2.762   2.762   2.762   2.762   2.762   2.762   2.762   2.762   2.762   2.762   2.762   2.762   2.762   2.762   2.762   2.762   2.762   2.762   2.762   2.762   2.762   2.762   2.762
    61.00    2.762   2.762   2.762   2.762   2.762   2.762   2.762   2.762   2.762   2.762   2.762   2.762   2.762   2.762   2.762   2.762   2.762   2.762   2.762   2.762   2.762   2.762   2.762   2.762   2.762   2.762   2.762   2.762   2.762   2.762   2.762   2.762   2.762   2.762   2.762   2.762
    52.43    2.762   2.762   2.762   2.762   2.762   2.762   2.762   2.762   2.762   2.762   2.762   2.762   2.762   2.762   2.762   2.762   2.762   2.762   2.762   2.762   2.762   2.762   2.762   2.762   2.762   2.762   2.762   2.762   2.762   2.762   2.762   2.762   2.762   2.762   2.762   2.762
    43.86    2.762   2.762   2.762   2.762   2.762   2.762   2.762   2.762   2.762   2.762   2.762   2.762   2.762   2.762   2.762   2.762   2.762   2.762   2.762   2.762   2.762   2.762   2.762   2.762   2.762   2.762   2.762   2.762   2.762   2.762   2.762   2.762   2.762   2.762   2.762   2.762
    35.29    2.762   2.762   2.762   2.762   2.762   2.762   2.762   2.762   2.762   2.762   2.762   2.762   2.762   2.762   2.762   2.762   2.762   2.762   2.762   2.762   2.762   2.762   2.762   2.762   2.762   2.762   2.762   2.762   2.762   2.762   2.762   2.762   2.762   2.762   2.762   2.762
    26.71    2.762   2.762   2.762   2.762   2.762   2.762   2.762   2.762   2.762   2.762   2.762   2.762   2.762   2.762   2.762   2.762   2.762   2.762   2.762   2.762   2.762   2.762   2.762   2.762   2.762   2.762   2.762   2.762   2.762   2.762   2.762   2.762   2.762   2.762   2.762   2.762
    18.14    2.762   2.762   2.762   2.762   2.762   2.762   2.762   2.762   2.762   2.762   2.762   2.762   2.762   2.762   2.762   2.762   2.762   2.762   2.762   2.762   2.762   2.762   2.762   2.762   2.762   2.762   2.762   2.762   2.762   2.762   2.762   2.762   2.762   2.762   2.762   2.762
     9.57    2.762   2.762   2.762   2.762   2.762   2.762   2.762   2.762   2.762   2.762   2.762   2.762   2.762   2.762   2.762   2.762   2.762   2.762   2.762   2.762   2.762   2.762   2.762   2.762   2.762   2.762   2.762   2.762   2.762   2.762   2.762   2.762   2.762   2.762   2.762   2.762
     1.00    2.762   2.762   2.762   2.762   2.762   2.762   2.762   2.762   2.762   2.762   2.762   2.762   2.762   2.762   2.762   2.762   2.762   2.762   2.762   2.762   2.762   2.762   2.762   2.762   2.762   2.762   2.762   2.762   2.762   2.762   2.762   2.762   2.762   2.762   2.762   2.762

   Mean standard deviation across all grid points:
      u component:    2.779 m/s
      v component:    2.762 m/s
      w component:    2.762 m/s


U-component (X) statistics from the interpolated hub point:

   Mean =  15.9569 m/s
   TI   =  15.1895 %


Normalizing Parameters for Binary Data (approximate statistics):

   UBar  =  15.9579 m/s
   TI(u) =  16.6268 %
   TI(v) =  17.3062 %
   TI(w) =  17.3062 %

   Height Offset =   0.0000 m
   Grid Base     =   1.0000 m

Creating a PERIODIC output file.


Processing complete.  115.92 CPU seconds used.
