
This summary file was generated by TurbSim (v2.00.07a-bjj, 14-Jun-2016) on 03-Nov-2023 at 03:21:07.


Runtime Options:

      2001  Random seed #1
    RANLUX  Type of random number generator
         F  Output binary HH turbulence parameters?
         F  Output formatted turbulence parameters?
         F  Output AeroDyn HH files?
         F  Output AeroDyn FF files?
         T  Output BLADED FF files?
         F  Output tower data?
         F  Output formatted FF files?
         F  Output coherent turbulence time step file?
         T  Clockwise rotation when looking downwind?
 0 -  NONE  IEC turbulence models scaled to exact specified standard deviation


Turbine/Model Specifications:

        36  Vertical grid-point matrix dimension
        36  Horizontal grid-point matrix dimension
     0.100  Time step [seconds]
   660.000  Analysis time [seconds]
   660.000  Usable output time [seconds]
   151.000  Hub height [m]
   300.000  Grid height [m]
   300.000  Grid width [m]
     0.000  Vertical flow angle [degrees]
     0.000  Horizontal flow angle [degrees]


Meteorological Boundary Conditions:

    IECVKM  IEC von Karman spectral model
         1  IEC standard: IEC 61400-1 Ed. 3: 2005
         A  IEC turbulence characteristic
       NTM  IEC Normal Turbulence Model
       N/A  IEC Extreme Turbulence Model (ETM) "c" parameter [m/s]
       PL   Wind profile type
   153.000  Reference height [m]
    11.000  Reference wind speed [m/s]
       N/A  Jet height [m]
     0.200  Power law exponent
     0.030  Surface roughness length [m]


Non-IEC Meteorological Boundary Conditions:

       N/A  Site latitude [degrees]
       N/A  Gradient Richardson number
       N/A  Friction or shear velocity [m/s]
       N/A  Mixing layer depth [m]
       N/A  Mean hub u'w' Reynolds stress
       N/A  Mean hub u'v' Reynolds stress
       N/A  Mean hub v'w' Reynolds stress


Spatial Coherence Models:

       IEC  u-component coherence model
      NONE  v-component coherence model
      NONE  w-component coherence model
(   12.000, 0.353E-03)  u-component coherence parameters
                   N/A  v-component coherence parameters
                   N/A  w-component coherence parameters
       N/A  Coherence exponent


You have requested that the following file(s) be generated:

   G:\2023\OpenWECDV1.0.0_x64\BaseLIne\wind\WindL_V_11_seed_2001.wnd (AeroDyn/BLADED full-field wnd file)


Turbulence Simulation Scaling Parameter Summary:

   Turbulence model used                            =  IEC von Karman
   Turbulence characteristic                        =  A
   IEC turbulence type                              =  Normal Turbulence Model
   IEC standard                                     =  IEC 61400-1 Ed. 3: 2005
   Mean wind speed at hub height                    =   10.971 m/s
   Expected value of turbulence intensity at 15 m/s =   16.000%
   Characteristic value of standard deviation       =    2.213 m/s
   Turbulence scale                                 =   42.000 m
   Isotropic integral scale                         =  147.000 m
   Characteristic value of hub turbulence intensity =   20.167%
   Gradient Richardson number                       =    0.000

   Wind profile type                                =  Power law
   Power law exponent                               =    0.200
   Mean shear across rotor disk                     =    0.029 (m/s)/m
   Assumed rotor diameter                           =  300.000 m
   Surface roughness length                         =    0.030 m

   Nyquist frequency of turbulent wind field        =    5.000 Hz

   Number of time steps in the FFT                  =     6600
   Number of time steps output                      =     6600
   Number of points simulated                       =     1297


Mean Flow Angles:

   Vertical   =   0.0 degrees
   Horizontal =   0.0 degrees

Mean Wind Speed Profile:

   Height    Wind Speed   Horizontal Angle  Vertical Angle  U-comp (X)   V-comp (Y)   W-comp (Z)
     (m)        (m/s)         (degrees)       (degrees)       (m/s)        (m/s)        (m/s)   
   ------    ----------   ----------------  --------------  ----------   ----------   ----------
    301.0       12.59            0.00            0.00         12.59         0.00         0.00
    292.4       12.52            0.00            0.00         12.52         0.00         0.00
    283.9       12.45            0.00            0.00         12.45         0.00         0.00
    275.3       12.37            0.00            0.00         12.37         0.00         0.00
    266.7       12.29            0.00            0.00         12.29         0.00         0.00
    258.1       12.21            0.00            0.00         12.21         0.00         0.00
    249.6       12.13            0.00            0.00         12.13         0.00         0.00
    241.0       12.05            0.00            0.00         12.05         0.00         0.00
    232.4       11.96            0.00            0.00         11.96         0.00         0.00
    223.9       11.87            0.00            0.00         11.87         0.00         0.00
    215.3       11.78            0.00            0.00         11.78         0.00         0.00
    206.7       11.68            0.00            0.00         11.68         0.00         0.00
    198.1       11.58            0.00            0.00         11.58         0.00         0.00
    189.6       11.48            0.00            0.00         11.48         0.00         0.00
    181.0       11.38            0.00            0.00         11.38         0.00         0.00
    172.4       11.27            0.00            0.00         11.27         0.00         0.00
    163.9       11.15            0.00            0.00         11.15         0.00         0.00
    155.3       11.03            0.00            0.00         11.03         0.00         0.00
    151.0       10.97            0.00            0.00         10.97         0.00         0.00
    146.7       10.91            0.00            0.00         10.91         0.00         0.00
    138.1       10.78            0.00            0.00         10.78         0.00         0.00
    129.6       10.64            0.00            0.00         10.64         0.00         0.00
    121.0       10.50            0.00            0.00         10.50         0.00         0.00
    112.4       10.34            0.00            0.00         10.34         0.00         0.00
    103.9       10.18            0.00            0.00         10.18         0.00         0.00
     95.3       10.01            0.00            0.00         10.01         0.00         0.00
     86.7        9.82            0.00            0.00          9.82         0.00         0.00
     78.1        9.62            0.00            0.00          9.62         0.00         0.00
     69.6        9.40            0.00            0.00          9.40         0.00         0.00
     61.0        9.15            0.00            0.00          9.15         0.00         0.00
     52.4        8.88            0.00            0.00          8.88         0.00         0.00
     43.9        8.57            0.00            0.00          8.57         0.00         0.00
     35.3        8.20            0.00            0.00          8.20         0.00         0.00
     26.7        7.76            0.00            0.00          7.76         0.00         0.00
     18.1        7.18            0.00            0.00          7.18         0.00         0.00
      9.6        6.32            0.00            0.00          6.32         0.00         0.00
      1.0        4.02            0.00            0.00          4.02         0.00         0.00


Harvested Random Seeds after Generation of the Random Numbers:

    119307688 K 1
            0 K 2


Hub-Height Simulated Turbulence Statistical Summary:

   Type of Wind        Min (m/s)   Mean (m/s)    Max (m/s)  Sigma (m/s)       TI (%)
   ----------------    ---------   ----------    ---------  -----------       ------
   Longitudinal (u)         4.79        10.97        16.29        1.884       17.176
   Lateral (v)             -7.70         0.00         8.07        2.171       19.789
   Vertical (w)            -7.07        -0.00         7.13        2.171       19.789
   U component              4.79        10.97        16.29        1.884       17.176
   V component             -7.70         0.00         8.07        2.171       19.789
   W component             -7.07        -0.00         7.13        2.171       19.789
   Horizontal (U&V)         5.02        11.19        16.53        1.841       16.448
   Total                    5.02        11.40        16.74        1.865       16.366

                       Min Reynolds     Mean Reynolds    Max Reynolds    Correlation
   Product             Stress (m/s)^2   Stress (m/s)^2   Stress (m/s)^2  Coefficient
   ----------------    --------------   --------------   --------------  -----------
   u'w'                    -25.025            -0.259            21.377        -0.063
   u'v'                    -17.905             0.101            17.547         0.025
   v'w'                    -28.791             0.045            26.786         0.009


   Friction Velocity (Ustar)  =      0.509 m/s
   Maximum Instantaneous TKE  =     34.261 (m/s)^2
   Maximum Instantaneous CTKE =     14.942 (m/s)^2


Grid Point Variance Summary:

   Y-coord -150.00 -141.43 -132.86 -124.29 -115.71 -107.14  -98.57  -90.00  -81.43  -72.86  -64.29  -55.71  -47.14  -38.57  -30.00  -21.43  -12.86   -4.29    4.29   12.86   21.43   30.00   38.57   47.14   55.71   64.29   72.86   81.43   90.00   98.57  107.14  115.71  124.29  132.86  141.43  150.00

   Height   Standard deviation at grid points for the u component:
   301.00    2.046   2.090   2.102   2.043   2.102   2.248   2.220   2.197   2.206   2.172   2.183   1.936   1.934   1.870   1.856   2.000   1.902   1.993   2.070   2.002   2.074   2.037   2.303   1.990   2.003   2.153   1.975   1.930   1.908   1.998   2.025   2.057   2.133   2.249   2.284   2.309
   292.43    2.038   2.088   2.058   2.092   2.015   2.214   2.221   2.135   2.092   2.101   2.051   1.935   2.033   2.031   2.020   1.981   2.072   1.984   1.905   1.986   1.953   1.995   2.125   1.939   1.994   1.936   1.952   1.841   1.811   1.899   2.019   1.926   2.006   2.000   2.340   2.377
   283.86    2.053   2.110   2.171   2.085   2.056   2.186   2.299   2.293   2.175   2.004   2.077   2.021   2.127   2.057   1.953   2.008   2.037   1.953   1.974   2.094   2.033   2.066   2.083   2.017   2.064   1.993   1.985   1.862   1.915   1.860   1.899   1.895   1.986   2.113   2.252   2.357
   275.29    2.241   2.262   2.247   2.180   2.110   2.216   2.096   2.273   2.193   1.965   2.001   2.038   2.165   1.958   1.976   1.902   2.119   2.167   2.134   2.056   2.063   2.179   2.249   2.096   2.130   2.137   2.127   1.952   2.113   1.917   1.895   2.007   2.044   2.144   2.209   2.340
   266.71    2.170   2.311   2.287   2.163   2.141   2.256   2.154   2.201   2.078   2.049   2.030   2.077   2.156   1.918   1.846   1.841   2.041   2.206   2.267   2.166   2.217   2.248   2.077   1.905   2.046   2.117   2.165   2.200   2.023   1.888   1.928   1.838   2.033   2.231   2.124   2.271
   258.14    2.234   2.339   2.396   2.246   2.167   2.130   2.129   2.184   2.030   2.075   1.951   2.059   1.995   1.803   1.807   1.801   2.029   2.068   2.102   2.188   2.245   2.209   2.201   2.075   1.927   2.137   2.094   2.091   1.915   1.878   1.870   1.794   2.070   2.181   2.148   2.330
   249.57    2.357   2.257   2.309   2.193   2.050   2.034   2.064   2.066   1.976   1.985   1.940   1.943   1.946   1.924   1.939   1.928   1.978   1.946   2.078   2.216   2.335   2.178   2.055   2.053   1.863   1.931   1.978   2.128   1.998   2.051   1.865   1.817   2.006   2.232   2.317   2.467
   241.00    2.294   2.349   2.175   2.198   2.082   2.030   2.120   1.984   2.017   1.845   1.710   1.944   1.972   2.017   1.821   1.956   2.074   2.129   2.121   2.319   2.332   2.113   2.007   2.040   2.023   2.043   2.010   2.127   2.107   2.035   2.138   2.013   2.032   2.195   2.173   2.501
   232.43    2.316   2.252   2.061   2.004   2.159   2.013   2.042   1.964   2.035   1.765   1.852   1.935   2.038   1.990   1.949   2.109   2.038   2.193   2.246   2.337   2.278   2.220   1.993   2.163   2.177   2.039   2.214   2.192   2.029   2.208   2.150   2.150   2.211   2.245   2.310   2.401
   223.86    2.120   2.148   1.935   1.968   2.138   1.980   1.808   1.959   2.096   1.928   1.894   1.992   1.922   2.132   1.956   2.201   2.182   2.317   2.227   2.367   2.372   2.254   2.124   2.052   2.083   2.266   2.182   2.131   1.917   2.196   2.123   2.171   2.193   2.320   2.432   2.369
   215.29    1.998   2.077   2.136   2.109   2.116   2.086   2.020   2.149   1.962   1.814   1.888   2.004   2.128   2.130   2.137   2.037   2.039   2.290   2.358   2.150   2.307   2.170   2.225   2.215   2.156   2.295   2.143   2.011   2.119   2.195   2.096   2.020   2.183   2.334   2.500   2.531
   206.71    2.123   2.022   2.186   2.338   2.177   2.058   2.017   1.963   1.893   1.824   2.007   2.095   2.186   2.097   2.150   2.167   2.077   2.237   2.280   2.274   2.301   2.343   2.176   2.218   2.157   2.203   2.045   2.056   2.144   2.083   2.179   2.120   2.278   2.237   2.443   2.408
   198.14    2.283   2.179   2.110   2.341   2.137   1.979   1.982   1.977   1.931   1.914   2.037   2.190   1.971   1.956   1.918   2.033   2.217   2.258   2.340   2.169   2.148   2.163   1.994   2.113   2.138   2.095   1.971   1.999   1.916   2.090   2.001   2.115   2.251   2.252   2.489   2.414
   189.57    2.302   2.442   2.164   2.168   2.252   2.022   2.052   2.062   1.923   1.977   2.050   2.092   2.093   2.051   2.019   2.020   2.130   2.106   2.232   2.211   2.128   2.066   1.958   1.984   2.144   2.116   2.078   2.052   1.901   1.910   1.977   2.089   2.124   2.153   2.152   2.272
   181.00    2.299   2.320   2.195   2.181   2.270   2.177   2.011   1.953   2.093   2.024   2.108   2.101   2.133   2.090   2.001   1.929   1.930   2.059   2.289   2.166   2.134   2.119   2.140   2.110   2.148   2.076   2.133   2.129   2.066   2.121   2.166   2.025   2.088   2.073   2.122   2.345
   172.43    2.236   2.383   2.274   2.338   2.210   2.211   2.105   2.100   1.986   2.021   2.143   2.249   2.183   2.141   2.026   1.991   1.927   1.981   2.137   2.196   2.069   2.140   1.969   1.925   2.094   2.173   2.125   2.056   2.029   2.025   2.094   2.116   2.031   2.189   2.143   2.165
   163.86    2.146   2.187   2.340   2.290   2.076   2.087   2.111   2.111   2.214   1.941   2.183   2.182   2.265   2.204   2.274   2.039   2.027   1.985   2.151   2.053   2.132   2.062   2.090   1.917   1.982   2.086   2.178   2.025   2.017   2.189   2.059   2.084   2.007   2.079   2.096   2.064
   155.29    2.289   2.320   2.315   2.409   2.277   2.080   2.037   2.049   1.981   2.108   2.199   2.306   2.285   2.272   2.303   1.991   1.940   1.842   2.032   2.162   2.130   1.982   2.005   2.090   1.966   2.086   2.022   2.000   2.073   2.097   2.180   2.171   1.993   2.040   1.973   1.942
   146.71    2.248   2.417   2.405   2.364   2.322   2.253   2.143   2.163   1.992   1.896   2.054   2.248   2.144   2.210   2.204   1.977   1.871   1.982   1.932   2.077   2.167   2.036   2.110   1.904   1.991   2.067   1.932   1.976   2.039   1.917   2.113   2.119   2.114   2.086   1.868   1.845
   138.14    2.440   2.443   2.459   2.491   2.303   2.349   2.147   1.996   2.140   1.886   2.079   2.194   1.926   2.125   2.019   2.013   1.990   1.813   1.888   2.161   2.118   2.147   2.066   1.949   1.999   1.997   2.004   2.139   2.020   1.994   1.993   2.054   2.111   2.057   2.052   1.944
   129.57    2.420   2.477   2.416   2.354   2.322   2.262   2.062   2.029   2.061   2.056   2.075   2.159   2.078   2.022   2.067   1.942   1.871   1.831   1.899   2.052   2.330   2.236   2.033   1.818   2.021   1.878   1.852   2.005   1.992   1.952   1.927   2.035   1.962   1.936   1.967   1.963
   121.00    2.269   2.443   2.440   2.373   2.251   2.164   2.151   2.008   1.993   2.160   2.214   2.255   2.127   2.159   2.072   1.937   1.820   1.888   1.999   2.240   2.322   2.348   2.135   2.052   1.851   2.033   1.877   1.835   1.936   1.856   1.888   1.942   1.977   2.037   2.004   1.787
   112.43    2.224   2.205   2.242   2.251   2.233   2.279   2.316   2.267   2.228   2.407   2.466   2.275   2.149   2.088   2.080   1.985   1.924   2.004   2.018   2.026   2.131   2.173   2.060   2.072   2.032   2.019   1.900   1.931   2.059   2.069   1.908   1.974   2.015   2.087   2.090   1.877
   103.86    2.166   2.007   1.976   2.009   2.080   2.259   2.244   2.252   2.329   2.367   2.445   2.361   2.180   2.104   2.094   2.101   2.136   2.111   1.991   1.928   1.963   2.038   2.049   1.981   2.045   2.038   2.125   1.959   2.066   2.013   1.990   1.948   1.947   1.973   1.979   1.970
    95.29    2.181   1.890   1.850   1.870   2.050   1.954   2.236   2.303   2.339   2.503   2.517   2.382   2.099   2.146   2.061   1.936   2.049   2.076   1.940   1.885   1.890   1.999   2.185   1.982   2.086   2.036   2.133   2.026   2.144   2.100   2.098   2.080   1.964   1.966   1.917   1.942
    86.71    2.069   1.974   1.911   1.909   2.146   2.131   2.150   2.366   2.488   2.408   2.309   2.199   2.008   1.932   1.936   1.798   1.971   1.983   2.094   1.836   1.969   2.030   2.115   2.035   2.066   2.048   2.138   2.132   2.039   2.056   2.167   2.199   2.014   2.015   1.908   2.218
    78.14    2.091   1.985   1.918   2.010   2.166   2.112   1.995   2.314   2.243   2.188   2.084   2.187   2.081   1.890   1.842   1.857   1.990   2.062   1.861   1.944   2.040   2.029   2.184   2.222   2.163   2.100   2.002   2.027   1.978   2.042   2.150   2.272   2.064   2.215   2.312   2.188
    69.57    2.210   2.125   2.134   2.129   2.087   2.060   2.145   2.146   2.192   2.159   2.041   2.109   2.005   1.964   1.912   1.866   1.945   2.040   2.054   2.005   2.062   2.149   2.089   2.196   2.269   2.208   2.009   2.033   1.968   2.038   2.201   2.260   2.277   2.184   2.365   2.346
    61.00    2.182   2.302   2.328   2.228   2.347   2.260   2.212   2.399   2.286   2.365   2.299   2.090   2.025   2.136   2.109   1.922   1.937   1.999   1.969   2.038   1.941   2.003   2.092   2.164   2.064   2.169   2.057   2.001   2.061   2.181   2.035   2.067   2.198   2.358   2.227   2.446
    52.43    2.105   2.157   2.178   2.408   2.260   2.283   2.237   2.420   2.246   2.340   2.361   2.139   2.075   2.085   2.048   2.085   1.915   1.965   1.969   1.984   1.946   2.083   2.111   2.110   2.041   1.988   1.910   2.065   2.024   2.086   2.129   2.062   2.059   2.086   2.258   2.415
    43.86    2.154   2.112   2.333   2.432   2.354   2.386   2.445   2.210   2.333   2.356   2.246   2.183   2.136   2.173   2.126   2.073   1.985   2.061   2.073   2.039   1.996   2.003   2.003   1.935   2.036   2.082   2.027   2.066   2.178   2.150   2.051   2.055   2.061   2.211   2.233   2.420
    35.29    2.271   2.242   2.353   2.420   2.333   2.361   2.430   2.252   2.245   2.395   2.346   2.283   2.107   2.174   2.193   2.024   2.066   1.916   1.930   1.884   1.921   1.813   1.991   2.030   2.022   2.114   2.262   2.174   2.105   2.124   2.028   2.060   2.112   2.141   2.107   2.211
    26.71    2.200   2.269   2.294   2.198   2.400   2.395   2.469   2.313   2.362   2.369   2.270   2.349   2.325   2.313   2.113   1.978   1.898   1.943   2.004   1.837   2.009   1.977   1.988   2.082   2.178   2.266   2.255   2.131   2.260   2.118   2.050   2.008   2.031   2.147   2.278   2.251
    18.14    2.137   2.231   2.321   2.319   2.429   2.400   2.270   2.204   2.295   2.324   2.361   2.335   2.261   2.235   2.071   2.017   1.965   1.989   1.850   1.878   1.918   1.934   2.097   2.269   2.216   2.306   2.153   2.142   2.287   2.039   2.103   1.942   2.052   2.168   2.307   2.310
     9.57    2.078   2.173   2.251   2.240   2.306   2.288   2.256   2.167   2.320   2.390   2.237   2.208   2.218   2.222   2.081   1.949   1.863   1.955   1.854   1.953   1.933   1.936   2.109   2.317   2.374   2.387   2.202   2.256   2.234   2.153   2.106   2.135   2.221   2.191   2.128   2.361
     1.00    2.154   2.120   2.115   2.225   2.049   2.183   2.273   2.064   2.251   2.361   2.341   2.175   2.225   2.138   1.998   1.924   1.872   2.015   1.878   1.941   1.962   2.023   1.958   2.146   2.316   2.288   2.366   2.158   2.166   2.037   2.082   2.267   2.252   2.243   2.260   2.299

   Height   Standard deviation at grid points for the v component:
   301.00    2.171   2.171   2.171   2.171   2.171   2.171   2.171   2.171   2.171   2.171   2.171   2.171   2.171   2.171   2.171   2.171   2.171   2.171   2.171   2.171   2.171   2.171   2.171   2.171   2.171   2.171   2.171   2.171   2.171   2.171   2.171   2.171   2.171   2.171   2.171   2.171
   292.43    2.171   2.171   2.171   2.171   2.171   2.171   2.171   2.171   2.171   2.171   2.171   2.171   2.171   2.171   2.171   2.171   2.171   2.171   2.171   2.171   2.171   2.171   2.171   2.171   2.171   2.171   2.171   2.171   2.171   2.171   2.171   2.171   2.171   2.171   2.171   2.171
   283.86    2.171   2.171   2.171   2.171   2.171   2.171   2.171   2.171   2.171   2.171   2.171   2.171   2.171   2.171   2.171   2.171   2.171   2.171   2.171   2.171   2.171   2.171   2.171   2.171   2.171   2.171   2.171   2.171   2.171   2.171   2.171   2.171   2.171   2.171   2.171   2.171
   275.29    2.171   2.171   2.171   2.171   2.171   2.171   2.171   2.171   2.171   2.171   2.171   2.171   2.171   2.171   2.171   2.171   2.171   2.171   2.171   2.171   2.171   2.171   2.171   2.171   2.171   2.171   2.171   2.171   2.171   2.171   2.171   2.171   2.171   2.171   2.171   2.171
   266.71    2.171   2.171   2.171   2.171   2.171   2.171   2.171   2.171   2.171   2.171   2.171   2.171   2.171   2.171   2.171   2.171   2.171   2.171   2.171   2.171   2.171   2.171   2.171   2.171   2.171   2.171   2.171   2.171   2.171   2.171   2.171   2.171   2.171   2.171   2.171   2.171
   258.14    2.171   2.171   2.171   2.171   2.171   2.171   2.171   2.171   2.171   2.171   2.171   2.171   2.171   2.171   2.171   2.171   2.171   2.171   2.171   2.171   2.171   2.171   2.171   2.171   2.171   2.171   2.171   2.171   2.171   2.171   2.171   2.171   2.171   2.171   2.171   2.171
   249.57    2.171   2.171   2.171   2.171   2.171   2.171   2.171   2.171   2.171   2.171   2.171   2.171   2.171   2.171   2.171   2.171   2.171   2.171   2.171   2.171   2.171   2.171   2.171   2.171   2.171   2.171   2.171   2.171   2.171   2.171   2.171   2.171   2.171   2.171   2.171   2.171
   241.00    2.171   2.171   2.171   2.171   2.171   2.171   2.171   2.171   2.171   2.171   2.171   2.171   2.171   2.171   2.171   2.171   2.171   2.171   2.171   2.171   2.171   2.171   2.171   2.171   2.171   2.171   2.171   2.171   2.171   2.171   2.171   2.171   2.171   2.171   2.171   2.171
   232.43    2.171   2.171   2.171   2.171   2.171   2.171   2.171   2.171   2.171   2.171   2.171   2.171   2.171   2.171   2.171   2.171   2.171   2.171   2.171   2.171   2.171   2.171   2.171   2.171   2.171   2.171   2.171   2.171   2.171   2.171   2.171   2.171   2.171   2.171   2.171   2.171
   223.86    2.171   2.171   2.171   2.171   2.171   2.171   2.171   2.171   2.171   2.171   2.171   2.171   2.171   2.171   2.171   2.171   2.171   2.171   2.171   2.171   2.171   2.171   2.171   2.171   2.171   2.171   2.171   2.171   2.171   2.171   2.171   2.171   2.171   2.171   2.171   2.171
   215.29    2.171   2.171   2.171   2.171   2.171   2.171   2.171   2.171   2.171   2.171   2.171   2.171   2.171   2.171   2.171   2.171   2.171   2.171   2.171   2.171   2.171   2.171   2.171   2.171   2.171   2.171   2.171   2.171   2.171   2.171   2.171   2.171   2.171   2.171   2.171   2.171
   206.71    2.171   2.171   2.171   2.171   2.171   2.171   2.171   2.171   2.171   2.171   2.171   2.171   2.171   2.171   2.171   2.171   2.171   2.171   2.171   2.171   2.171   2.171   2.171   2.171   2.171   2.171   2.171   2.171   2.171   2.171   2.171   2.171   2.171   2.171   2.171   2.171
   198.14    2.171   2.171   2.171   2.171   2.171   2.171   2.171   2.171   2.171   2.171   2.171   2.171   2.171   2.171   2.171   2.171   2.171   2.171   2.171   2.171   2.171   2.171   2.171   2.171   2.171   2.171   2.171   2.171   2.171   2.171   2.171   2.171   2.171   2.171   2.171   2.171
   189.57    2.171   2.171   2.171   2.171   2.171   2.171   2.171   2.171   2.171   2.171   2.171   2.171   2.171   2.171   2.171   2.171   2.171   2.171   2.171   2.171   2.171   2.171   2.171   2.171   2.171   2.171   2.171   2.171   2.171   2.171   2.171   2.171   2.171   2.171   2.171   2.171
   181.00    2.171   2.171   2.171   2.171   2.171   2.171   2.171   2.171   2.171   2.171   2.171   2.171   2.171   2.171   2.171   2.171   2.171   2.171   2.171   2.171   2.171   2.171   2.171   2.171   2.171   2.171   2.171   2.171   2.171   2.171   2.171   2.171   2.171   2.171   2.171   2.171
   172.43    2.171   2.171   2.171   2.171   2.171   2.171   2.171   2.171   2.171   2.171   2.171   2.171   2.171   2.171   2.171   2.171   2.171   2.171   2.171   2.171   2.171   2.171   2.171   2.171   2.171   2.171   2.171   2.171   2.171   2.171   2.171   2.171   2.171   2.171   2.171   2.171
   163.86    2.171   2.171   2.171   2.171   2.171   2.171   2.171   2.171   2.171   2.171   2.171   2.171   2.171   2.171   2.171   2.171   2.171   2.171   2.171   2.171   2.171   2.171   2.171   2.171   2.171   2.171   2.171   2.171   2.171   2.171   2.171   2.171   2.171   2.171   2.171   2.171
   155.29    2.171   2.171   2.171   2.171   2.171   2.171   2.171   2.171   2.171   2.171   2.171   2.171   2.171   2.171   2.171   2.171   2.171   2.171   2.171   2.171   2.171   2.171   2.171   2.171   2.171   2.171   2.171   2.171   2.171   2.171   2.171   2.171   2.171   2.171   2.171   2.171
   146.71    2.171   2.171   2.171   2.171   2.171   2.171   2.171   2.171   2.171   2.171   2.171   2.171   2.171   2.171   2.171   2.171   2.171   2.171   2.171   2.171   2.171   2.171   2.171   2.171   2.171   2.171   2.171   2.171   2.171   2.171   2.171   2.171   2.171   2.171   2.171   2.171
   138.14    2.171   2.171   2.171   2.171   2.171   2.171   2.171   2.171   2.171   2.171   2.171   2.171   2.171   2.171   2.171   2.171   2.171   2.171   2.171   2.171   2.171   2.171   2.171   2.171   2.171   2.171   2.171   2.171   2.171   2.171   2.171   2.171   2.171   2.171   2.171   2.171
   129.57    2.171   2.171   2.171   2.171   2.171   2.171   2.171   2.171   2.171   2.171   2.171   2.171   2.171   2.171   2.171   2.171   2.171   2.171   2.171   2.171   2.171   2.171   2.171   2.171   2.171   2.171   2.171   2.171   2.171   2.171   2.171   2.171   2.171   2.171   2.171   2.171
   121.00    2.171   2.171   2.171   2.171   2.171   2.171   2.171   2.171   2.171   2.171   2.171   2.171   2.171   2.171   2.171   2.171   2.171   2.171   2.171   2.171   2.171   2.171   2.171   2.171   2.171   2.171   2.171   2.171   2.171   2.171   2.171   2.171   2.171   2.171   2.171   2.171
   112.43    2.171   2.171   2.171   2.171   2.171   2.171   2.171   2.171   2.171   2.171   2.171   2.171   2.171   2.171   2.171   2.171   2.171   2.171   2.171   2.171   2.171   2.171   2.171   2.171   2.171   2.171   2.171   2.171   2.171   2.171   2.171   2.171   2.171   2.171   2.171   2.171
   103.86    2.171   2.171   2.171   2.171   2.171   2.171   2.171   2.171   2.171   2.171   2.171   2.171   2.171   2.171   2.171   2.171   2.171   2.171   2.171   2.171   2.171   2.171   2.171   2.171   2.171   2.171   2.171   2.171   2.171   2.171   2.171   2.171   2.171   2.171   2.171   2.171
    95.29    2.171   2.171   2.171   2.171   2.171   2.171   2.171   2.171   2.171   2.171   2.171   2.171   2.171   2.171   2.171   2.171   2.171   2.171   2.171   2.171   2.171   2.171   2.171   2.171   2.171   2.171   2.171   2.171   2.171   2.171   2.171   2.171   2.171   2.171   2.171   2.171
    86.71    2.171   2.171   2.171   2.171   2.171   2.171   2.171   2.171   2.171   2.171   2.171   2.171   2.171   2.171   2.171   2.171   2.171   2.171   2.171   2.171   2.171   2.171   2.171   2.171   2.171   2.171   2.171   2.171   2.171   2.171   2.171   2.171   2.171   2.171   2.171   2.171
    78.14    2.171   2.171   2.171   2.171   2.171   2.171   2.171   2.171   2.171   2.171   2.171   2.171   2.171   2.171   2.171   2.171   2.171   2.171   2.171   2.171   2.171   2.171   2.171   2.171   2.171   2.171   2.171   2.171   2.171   2.171   2.171   2.171   2.171   2.171   2.171   2.171
    69.57    2.171   2.171   2.171   2.171   2.171   2.171   2.171   2.171   2.171   2.171   2.171   2.171   2.171   2.171   2.171   2.171   2.171   2.171   2.171   2.171   2.171   2.171   2.171   2.171   2.171   2.171   2.171   2.171   2.171   2.171   2.171   2.171   2.171   2.171   2.171   2.171
    61.00    2.171   2.171   2.171   2.171   2.171   2.171   2.171   2.171   2.171   2.171   2.171   2.171   2.171   2.171   2.171   2.171   2.171   2.171   2.171   2.171   2.171   2.171   2.171   2.171   2.171   2.171   2.171   2.171   2.171   2.171   2.171   2.171   2.171   2.171   2.171   2.171
    52.43    2.171   2.171   2.171   2.171   2.171   2.171   2.171   2.171   2.171   2.171   2.171   2.171   2.171   2.171   2.171   2.171   2.171   2.171   2.171   2.171   2.171   2.171   2.171   2.171   2.171   2.171   2.171   2.171   2.171   2.171   2.171   2.171   2.171   2.171   2.171   2.171
    43.86    2.171   2.171   2.171   2.171   2.171   2.171   2.171   2.171   2.171   2.171   2.171   2.171   2.171   2.171   2.171   2.171   2.171   2.171   2.171   2.171   2.171   2.171   2.171   2.171   2.171   2.171   2.171   2.171   2.171   2.171   2.171   2.171   2.171   2.171   2.171   2.171
    35.29    2.171   2.171   2.171   2.171   2.171   2.171   2.171   2.171   2.171   2.171   2.171   2.171   2.171   2.171   2.171   2.171   2.171   2.171   2.171   2.171   2.171   2.171   2.171   2.171   2.171   2.171   2.171   2.171   2.171   2.171   2.171   2.171   2.171   2.171   2.171   2.171
    26.71    2.171   2.171   2.171   2.171   2.171   2.171   2.171   2.171   2.171   2.171   2.171   2.171   2.171   2.171   2.171   2.171   2.171   2.171   2.171   2.171   2.171   2.171   2.171   2.171   2.171   2.171   2.171   2.171   2.171   2.171   2.171   2.171   2.171   2.171   2.171   2.171
    18.14    2.171   2.171   2.171   2.171   2.171   2.171   2.171   2.171   2.171   2.171   2.171   2.171   2.171   2.171   2.171   2.171   2.171   2.171   2.171   2.171   2.171   2.171   2.171   2.171   2.171   2.171   2.171   2.171   2.171   2.171   2.171   2.171   2.171   2.171   2.171   2.171
     9.57    2.171   2.171   2.171   2.171   2.171   2.171   2.171   2.171   2.171   2.171   2.171   2.171   2.171   2.171   2.171   2.171   2.171   2.171   2.171   2.171   2.171   2.171   2.171   2.171   2.171   2.171   2.171   2.171   2.171   2.171   2.171   2.171   2.171   2.171   2.171   2.171
     1.00    2.171   2.171   2.171   2.171   2.171   2.171   2.171   2.171   2.171   2.171   2.171   2.171   2.171   2.171   2.171   2.171   2.171   2.171   2.171   2.171   2.171   2.171   2.171   2.171   2.171   2.171   2.171   2.171   2.171   2.171   2.171   2.171   2.171   2.171   2.171   2.171

   Height   Standard deviation at grid points for the w component:
   301.00    2.171   2.171   2.171   2.171   2.171   2.171   2.171   2.171   2.171   2.171   2.171   2.171   2.171   2.171   2.171   2.171   2.171   2.171   2.171   2.171   2.171   2.171   2.171   2.171   2.171   2.171   2.171   2.171   2.171   2.171   2.171   2.171   2.171   2.171   2.171   2.171
   292.43    2.171   2.171   2.171   2.171   2.171   2.171   2.171   2.171   2.171   2.171   2.171   2.171   2.171   2.171   2.171   2.171   2.171   2.171   2.171   2.171   2.171   2.171   2.171   2.171   2.171   2.171   2.171   2.171   2.171   2.171   2.171   2.171   2.171   2.171   2.171   2.171
   283.86    2.171   2.171   2.171   2.171   2.171   2.171   2.171   2.171   2.171   2.171   2.171   2.171   2.171   2.171   2.171   2.171   2.171   2.171   2.171   2.171   2.171   2.171   2.171   2.171   2.171   2.171   2.171   2.171   2.171   2.171   2.171   2.171   2.171   2.171   2.171   2.171
   275.29    2.171   2.171   2.171   2.171   2.171   2.171   2.171   2.171   2.171   2.171   2.171   2.171   2.171   2.171   2.171   2.171   2.171   2.171   2.171   2.171   2.171   2.171   2.171   2.171   2.171   2.171   2.171   2.171   2.171   2.171   2.171   2.171   2.171   2.171   2.171   2.171
   266.71    2.171   2.171   2.171   2.171   2.171   2.171   2.171   2.171   2.171   2.171   2.171   2.171   2.171   2.171   2.171   2.171   2.171   2.171   2.171   2.171   2.171   2.171   2.171   2.171   2.171   2.171   2.171   2.171   2.171   2.171   2.171   2.171   2.171   2.171   2.171   2.171
   258.14    2.171   2.171   2.171   2.171   2.171   2.171   2.171   2.171   2.171   2.171   2.171   2.171   2.171   2.171   2.171   2.171   2.171   2.171   2.171   2.171   2.171   2.171   2.171   2.171   2.171   2.171   2.171   2.171   2.171   2.171   2.171   2.171   2.171   2.171   2.171   2.171
   249.57    2.171   2.171   2.171   2.171   2.171   2.171   2.171   2.171   2.171   2.171   2.171   2.171   2.171   2.171   2.171   2.171   2.171   2.171   2.171   2.171   2.171   2.171   2.171   2.171   2.171   2.171   2.171   2.171   2.171   2.171   2.171   2.171   2.171   2.171   2.171   2.171
   241.00    2.171   2.171   2.171   2.171   2.171   2.171   2.171   2.171   2.171   2.171   2.171   2.171   2.171   2.171   2.171   2.171   2.171   2.171   2.171   2.171   2.171   2.171   2.171   2.171   2.171   2.171   2.171   2.171   2.171   2.171   2.171   2.171   2.171   2.171   2.171   2.171
   232.43    2.171   2.171   2.171   2.171   2.171   2.171   2.171   2.171   2.171   2.171   2.171   2.171   2.171   2.171   2.171   2.171   2.171   2.171   2.171   2.171   2.171   2.171   2.171   2.171   2.171   2.171   2.171   2.171   2.171   2.171   2.171   2.171   2.171   2.171   2.171   2.171
   223.86    2.171   2.171   2.171   2.171   2.171   2.171   2.171   2.171   2.171   2.171   2.171   2.171   2.171   2.171   2.171   2.171   2.171   2.171   2.171   2.171   2.171   2.171   2.171   2.171   2.171   2.171   2.171   2.171   2.171   2.171   2.171   2.171   2.171   2.171   2.171   2.171
   215.29    2.171   2.171   2.171   2.171   2.171   2.171   2.171   2.171   2.171   2.171   2.171   2.171   2.171   2.171   2.171   2.171   2.171   2.171   2.171   2.171   2.171   2.171   2.171   2.171   2.171   2.171   2.171   2.171   2.171   2.171   2.171   2.171   2.171   2.171   2.171   2.171
   206.71    2.171   2.171   2.171   2.171   2.171   2.171   2.171   2.171   2.171   2.171   2.171   2.171   2.171   2.171   2.171   2.171   2.171   2.171   2.171   2.171   2.171   2.171   2.171   2.171   2.171   2.171   2.171   2.171   2.171   2.171   2.171   2.171   2.171   2.171   2.171   2.171
   198.14    2.171   2.171   2.171   2.171   2.171   2.171   2.171   2.171   2.171   2.171   2.171   2.171   2.171   2.171   2.171   2.171   2.171   2.171   2.171   2.171   2.171   2.171   2.171   2.171   2.171   2.171   2.171   2.171   2.171   2.171   2.171   2.171   2.171   2.171   2.171   2.171
   189.57    2.171   2.171   2.171   2.171   2.171   2.171   2.171   2.171   2.171   2.171   2.171   2.171   2.171   2.171   2.171   2.171   2.171   2.171   2.171   2.171   2.171   2.171   2.171   2.171   2.171   2.171   2.171   2.171   2.171   2.171   2.171   2.171   2.171   2.171   2.171   2.171
   181.00    2.171   2.171   2.171   2.171   2.171   2.171   2.171   2.171   2.171   2.171   2.171   2.171   2.171   2.171   2.171   2.171   2.171   2.171   2.171   2.171   2.171   2.171   2.171   2.171   2.171   2.171   2.171   2.171   2.171   2.171   2.171   2.171   2.171   2.171   2.171   2.171
   172.43    2.171   2.171   2.171   2.171   2.171   2.171   2.171   2.171   2.171   2.171   2.171   2.171   2.171   2.171   2.171   2.171   2.171   2.171   2.171   2.171   2.171   2.171   2.171   2.171   2.171   2.171   2.171   2.171   2.171   2.171   2.171   2.171   2.171   2.171   2.171   2.171
   163.86    2.171   2.171   2.171   2.171   2.171   2.171   2.171   2.171   2.171   2.171   2.171   2.171   2.171   2.171   2.171   2.171   2.171   2.171   2.171   2.171   2.171   2.171   2.171   2.171   2.171   2.171   2.171   2.171   2.171   2.171   2.171   2.171   2.171   2.171   2.171   2.171
   155.29    2.171   2.171   2.171   2.171   2.171   2.171   2.171   2.171   2.171   2.171   2.171   2.171   2.171   2.171   2.171   2.171   2.171   2.171   2.171   2.171   2.171   2.171   2.171   2.171   2.171   2.171   2.171   2.171   2.171   2.171   2.171   2.171   2.171   2.171   2.171   2.171
   146.71    2.171   2.171   2.171   2.171   2.171   2.171   2.171   2.171   2.171   2.171   2.171   2.171   2.171   2.171   2.171   2.171   2.171   2.171   2.171   2.171   2.171   2.171   2.171   2.171   2.171   2.171   2.171   2.171   2.171   2.171   2.171   2.171   2.171   2.171   2.171   2.171
   138.14    2.171   2.171   2.171   2.171   2.171   2.171   2.171   2.171   2.171   2.171   2.171   2.171   2.171   2.171   2.171   2.171   2.171   2.171   2.171   2.171   2.171   2.171   2.171   2.171   2.171   2.171   2.171   2.171   2.171   2.171   2.171   2.171   2.171   2.171   2.171   2.171
   129.57    2.171   2.171   2.171   2.171   2.171   2.171   2.171   2.171   2.171   2.171   2.171   2.171   2.171   2.171   2.171   2.171   2.171   2.171   2.171   2.171   2.171   2.171   2.171   2.171   2.171   2.171   2.171   2.171   2.171   2.171   2.171   2.171   2.171   2.171   2.171   2.171
   121.00    2.171   2.171   2.171   2.171   2.171   2.171   2.171   2.171   2.171   2.171   2.171   2.171   2.171   2.171   2.171   2.171   2.171   2.171   2.171   2.171   2.171   2.171   2.171   2.171   2.171   2.171   2.171   2.171   2.171   2.171   2.171   2.171   2.171   2.171   2.171   2.171
   112.43    2.171   2.171   2.171   2.171   2.171   2.171   2.171   2.171   2.171   2.171   2.171   2.171   2.171   2.171   2.171   2.171   2.171   2.171   2.171   2.171   2.171   2.171   2.171   2.171   2.171   2.171   2.171   2.171   2.171   2.171   2.171   2.171   2.171   2.171   2.171   2.171
   103.86    2.171   2.171   2.171   2.171   2.171   2.171   2.171   2.171   2.171   2.171   2.171   2.171   2.171   2.171   2.171   2.171   2.171   2.171   2.171   2.171   2.171   2.171   2.171   2.171   2.171   2.171   2.171   2.171   2.171   2.171   2.171   2.171   2.171   2.171   2.171   2.171
    95.29    2.171   2.171   2.171   2.171   2.171   2.171   2.171   2.171   2.171   2.171   2.171   2.171   2.171   2.171   2.171   2.171   2.171   2.171   2.171   2.171   2.171   2.171   2.171   2.171   2.171   2.171   2.171   2.171   2.171   2.171   2.171   2.171   2.171   2.171   2.171   2.171
    86.71    2.171   2.171   2.171   2.171   2.171   2.171   2.171   2.171   2.171   2.171   2.171   2.171   2.171   2.171   2.171   2.171   2.171   2.171   2.171   2.171   2.171   2.171   2.171   2.171   2.171   2.171   2.171   2.171   2.171   2.171   2.171   2.171   2.171   2.171   2.171   2.171
    78.14    2.171   2.171   2.171   2.171   2.171   2.171   2.171   2.171   2.171   2.171   2.171   2.171   2.171   2.171   2.171   2.171   2.171   2.171   2.171   2.171   2.171   2.171   2.171   2.171   2.171   2.171   2.171   2.171   2.171   2.171   2.171   2.171   2.171   2.171   2.171   2.171
    69.57    2.171   2.171   2.171   2.171   2.171   2.171   2.171   2.171   2.171   2.171   2.171   2.171   2.171   2.171   2.171   2.171   2.171   2.171   2.171   2.171   2.171   2.171   2.171   2.171   2.171   2.171   2.171   2.171   2.171   2.171   2.171   2.171   2.171   2.171   2.171   2.171
    61.00    2.171   2.171   2.171   2.171   2.171   2.171   2.171   2.171   2.171   2.171   2.171   2.171   2.171   2.171   2.171   2.171   2.171   2.171   2.171   2.171   2.171   2.171   2.171   2.171   2.171   2.171   2.171   2.171   2.171   2.171   2.171   2.171   2.171   2.171   2.171   2.171
    52.43    2.171   2.171   2.171   2.171   2.171   2.171   2.171   2.171   2.171   2.171   2.171   2.171   2.171   2.171   2.171   2.171   2.171   2.171   2.171   2.171   2.171   2.171   2.171   2.171   2.171   2.171   2.171   2.171   2.171   2.171   2.171   2.171   2.171   2.171   2.171   2.171
    43.86    2.171   2.171   2.171   2.171   2.171   2.171   2.171   2.171   2.171   2.171   2.171   2.171   2.171   2.171   2.171   2.171   2.171   2.171   2.171   2.171   2.171   2.171   2.171   2.171   2.171   2.171   2.171   2.171   2.171   2.171   2.171   2.171   2.171   2.171   2.171   2.171
    35.29    2.171   2.171   2.171   2.171   2.171   2.171   2.171   2.171   2.171   2.171   2.171   2.171   2.171   2.171   2.171   2.171   2.171   2.171   2.171   2.171   2.171   2.171   2.171   2.171   2.171   2.171   2.171   2.171   2.171   2.171   2.171   2.171   2.171   2.171   2.171   2.171
    26.71    2.171   2.171   2.171   2.171   2.171   2.171   2.171   2.171   2.171   2.171   2.171   2.171   2.171   2.171   2.171   2.171   2.171   2.171   2.171   2.171   2.171   2.171   2.171   2.171   2.171   2.171   2.171   2.171   2.171   2.171   2.171   2.171   2.171   2.171   2.171   2.171
    18.14    2.171   2.171   2.171   2.171   2.171   2.171   2.171   2.171   2.171   2.171   2.171   2.171   2.171   2.171   2.171   2.171   2.171   2.171   2.171   2.171   2.171   2.171   2.171   2.171   2.171   2.171   2.171   2.171   2.171   2.171   2.171   2.171   2.171   2.171   2.171   2.171
     9.57    2.171   2.171   2.171   2.171   2.171   2.171   2.171   2.171   2.171   2.171   2.171   2.171   2.171   2.171   2.171   2.171   2.171   2.171   2.171   2.171   2.171   2.171   2.171   2.171   2.171   2.171   2.171   2.171   2.171   2.171   2.171   2.171   2.171   2.171   2.171   2.171
     1.00    2.171   2.171   2.171   2.171   2.171   2.171   2.171   2.171   2.171   2.171   2.171   2.171   2.171   2.171   2.171   2.171   2.171   2.171   2.171   2.171   2.171   2.171   2.171   2.171   2.171   2.171   2.171   2.171   2.171   2.171   2.171   2.171   2.171   2.171   2.171   2.171

   Mean standard deviation across all grid points:
      u component:    2.109 m/s
      v component:    2.171 m/s
      w component:    2.171 m/s


U-component (X) statistics from the interpolated hub point:

   Mean =  10.9704 m/s
   TI   =  15.3238 %


Normalizing Parameters for Binary Data (approximate statistics):

   UBar  =  10.9711 m/s
   TI(u) =  17.1757 %
   TI(v) =  19.7889 %
   TI(w) =  19.7889 %

   Height Offset =   0.0000 m
   Grid Base     =   1.0000 m

Creating a PERIODIC output file.


Processing complete.  117.3 CPU seconds used.
