
This summary file was generated by TurbSim (v2.00.07a-bjj, 14-Jun-2016) on 03-Nov-2023 at 03:31:25.


Runtime Options:

      1401  Random seed #1
    RANLUX  Type of random number generator
         F  Output binary HH turbulence parameters?
         F  Output formatted turbulence parameters?
         F  Output AeroDyn HH files?
         F  Output AeroDyn FF files?
         T  Output BLADED FF files?
         F  Output tower data?
         F  Output formatted FF files?
         F  Output coherent turbulence time step file?
         T  Clockwise rotation when looking downwind?
 0 -  NONE  IEC turbulence models scaled to exact specified standard deviation


Turbine/Model Specifications:

        36  Vertical grid-point matrix dimension
        36  Horizontal grid-point matrix dimension
     0.100  Time step [seconds]
   660.000  Analysis time [seconds]
   660.000  Usable output time [seconds]
   151.000  Hub height [m]
   300.000  Grid height [m]
   300.000  Grid width [m]
     0.000  Vertical flow angle [degrees]
     0.000  Horizontal flow angle [degrees]


Meteorological Boundary Conditions:

    IECVKM  IEC von Karman spectral model
         1  IEC standard: IEC 61400-1 Ed. 3: 2005
         A  IEC turbulence characteristic
       NTM  IEC Normal Turbulence Model
       N/A  IEC Extreme Turbulence Model (ETM) "c" parameter [m/s]
       PL   Wind profile type
   153.000  Reference height [m]
     9.000  Reference wind speed [m/s]
       N/A  Jet height [m]
     0.200  Power law exponent
     0.030  Surface roughness length [m]


Non-IEC Meteorological Boundary Conditions:

       N/A  Site latitude [degrees]
       N/A  Gradient Richardson number
       N/A  Friction or shear velocity [m/s]
       N/A  Mixing layer depth [m]
       N/A  Mean hub u'w' Reynolds stress
       N/A  Mean hub u'v' Reynolds stress
       N/A  Mean hub v'w' Reynolds stress


Spatial Coherence Models:

       IEC  u-component coherence model
      NONE  v-component coherence model
      NONE  w-component coherence model
(   12.000, 0.353E-03)  u-component coherence parameters
                   N/A  v-component coherence parameters
                   N/A  w-component coherence parameters
       N/A  Coherence exponent


You have requested that the following file(s) be generated:

   G:\2023\OpenWECDV1.0.0_x64\BaseLIne\wind\WindL_V_9_seed_1401.wnd (AeroDyn/BLADED full-field wnd file)


Turbulence Simulation Scaling Parameter Summary:

   Turbulence model used                            =  IEC von Karman
   Turbulence characteristic                        =  A
   IEC turbulence type                              =  Normal Turbulence Model
   IEC standard                                     =  IEC 61400-1 Ed. 3: 2005
   Mean wind speed at hub height                    =    8.976 m/s
   Expected value of turbulence intensity at 15 m/s =   16.000%
   Characteristic value of standard deviation       =    1.973 m/s
   Turbulence scale                                 =   42.000 m
   Isotropic integral scale                         =  147.000 m
   Characteristic value of hub turbulence intensity =   21.982%
   Gradient Richardson number                       =    0.000

   Wind profile type                                =  Power law
   Power law exponent                               =    0.200
   Mean shear across rotor disk                     =    0.023 (m/s)/m
   Assumed rotor diameter                           =  300.000 m
   Surface roughness length                         =    0.030 m

   Nyquist frequency of turbulent wind field        =    5.000 Hz

   Number of time steps in the FFT                  =     6600
   Number of time steps output                      =     6600
   Number of points simulated                       =     1297


Mean Flow Angles:

   Vertical   =   0.0 degrees
   Horizontal =   0.0 degrees

Mean Wind Speed Profile:

   Height    Wind Speed   Horizontal Angle  Vertical Angle  U-comp (X)   V-comp (Y)   W-comp (Z)
     (m)        (m/s)         (degrees)       (degrees)       (m/s)        (m/s)        (m/s)   
   ------    ----------   ----------------  --------------  ----------   ----------   ----------
    301.0       10.30            0.00            0.00         10.30         0.00         0.00
    292.4       10.24            0.00            0.00         10.24         0.00         0.00
    283.9       10.18            0.00            0.00         10.18         0.00         0.00
    275.3       10.12            0.00            0.00         10.12         0.00         0.00
    266.7       10.06            0.00            0.00         10.06         0.00         0.00
    258.1        9.99            0.00            0.00          9.99         0.00         0.00
    249.6        9.93            0.00            0.00          9.93         0.00         0.00
    241.0        9.86            0.00            0.00          9.86         0.00         0.00
    232.4        9.79            0.00            0.00          9.79         0.00         0.00
    223.9        9.71            0.00            0.00          9.71         0.00         0.00
    215.3        9.64            0.00            0.00          9.64         0.00         0.00
    206.7        9.56            0.00            0.00          9.56         0.00         0.00
    198.1        9.48            0.00            0.00          9.48         0.00         0.00
    189.6        9.39            0.00            0.00          9.39         0.00         0.00
    181.0        9.31            0.00            0.00          9.31         0.00         0.00
    172.4        9.22            0.00            0.00          9.22         0.00         0.00
    163.9        9.12            0.00            0.00          9.12         0.00         0.00
    155.3        9.03            0.00            0.00          9.03         0.00         0.00
    151.0        8.98            0.00            0.00          8.98         0.00         0.00
    146.7        8.92            0.00            0.00          8.92         0.00         0.00
    138.1        8.82            0.00            0.00          8.82         0.00         0.00
    129.6        8.71            0.00            0.00          8.71         0.00         0.00
    121.0        8.59            0.00            0.00          8.59         0.00         0.00
    112.4        8.46            0.00            0.00          8.46         0.00         0.00
    103.9        8.33            0.00            0.00          8.33         0.00         0.00
     95.3        8.19            0.00            0.00          8.19         0.00         0.00
     86.7        8.03            0.00            0.00          8.03         0.00         0.00
     78.1        7.87            0.00            0.00          7.87         0.00         0.00
     69.6        7.69            0.00            0.00          7.69         0.00         0.00
     61.0        7.49            0.00            0.00          7.49         0.00         0.00
     52.4        7.26            0.00            0.00          7.26         0.00         0.00
     43.9        7.01            0.00            0.00          7.01         0.00         0.00
     35.3        6.71            0.00            0.00          6.71         0.00         0.00
     26.7        6.35            0.00            0.00          6.35         0.00         0.00
     18.1        5.88            0.00            0.00          5.88         0.00         0.00
      9.6        5.17            0.00            0.00          5.17         0.00         0.00
      1.0        3.29            0.00            0.00          3.29         0.00         0.00


Harvested Random Seeds after Generation of the Random Numbers:

    119307688 K 1
            0 K 2


Hub-Height Simulated Turbulence Statistical Summary:

   Type of Wind        Min (m/s)   Mean (m/s)    Max (m/s)  Sigma (m/s)       TI (%)
   ----------------    ---------   ----------    ---------  -----------       ------
   Longitudinal (u)         3.01         8.98        14.25        1.889       21.049
   Lateral (v)             -6.09        -0.00         6.73        1.933       21.539
   Vertical (w)            -7.36         0.00         5.39        1.933       21.539
   U component              3.01         8.98        14.25        1.889       21.049
   V component             -6.09        -0.00         6.73        1.933       21.539
   W component             -7.36         0.00         5.39        1.933       21.539
   Horizontal (U&V)         3.03         9.18        14.64        1.881       20.483
   Total                    3.97         9.39        15.14        1.865       19.867

                       Min Reynolds     Mean Reynolds    Max Reynolds    Correlation
   Product             Stress (m/s)^2   Stress (m/s)^2   Stress (m/s)^2  Coefficient
   ----------------    --------------   --------------   --------------  -----------
   u'w'                    -18.394             0.605            20.830         0.166
   u'v'                    -21.645            -1.342            14.120        -0.367
   v'w'                    -16.278            -0.166            18.507        -0.044


   Friction Velocity (Ustar)  =      0.778 m/s
   Maximum Instantaneous TKE  =     27.792 (m/s)^2
   Maximum Instantaneous CTKE =     15.817 (m/s)^2


Grid Point Variance Summary:

   Y-coord -150.00 -141.43 -132.86 -124.29 -115.71 -107.14  -98.57  -90.00  -81.43  -72.86  -64.29  -55.71  -47.14  -38.57  -30.00  -21.43  -12.86   -4.29    4.29   12.86   21.43   30.00   38.57   47.14   55.71   64.29   72.86   81.43   90.00   98.57  107.14  115.71  124.29  132.86  141.43  150.00

   Height   Standard deviation at grid points for the u component:
   301.00    2.141   2.098   2.148   2.122   2.063   2.020   2.183   2.248   2.266   2.346   2.107   2.233   2.158   2.095   2.117   2.191   2.111   2.304   2.439   2.517   2.446   2.291   2.124   2.153   2.216   2.251   2.011   1.981   2.023   2.007   1.977   1.999   1.858   2.001   1.954   2.008
   292.43    2.188   2.035   2.102   2.260   2.376   2.175   2.335   2.327   2.519   2.520   2.515   2.450   2.377   2.286   2.096   2.021   2.046   2.188   2.254   2.378   2.426   2.489   2.297   2.351   2.229   2.144   2.144   2.036   2.060   1.938   1.955   2.047   1.954   1.935   1.936   1.873
   283.86    2.088   2.108   2.251   2.175   2.310   2.235   2.292   2.390   2.424   2.422   2.435   2.424   2.282   2.160   2.108   1.975   2.066   2.028   2.212   2.388   2.510   2.510   2.493   2.559   2.345   2.053   1.894   1.986   2.002   2.042   1.886   1.936   1.794   1.926   2.032   1.813
   275.29    1.976   1.966   2.154   2.263   2.223   2.161   2.216   2.306   2.397   2.533   2.315   2.358   2.393   2.341   2.278   2.177   2.336   2.303   2.307   2.340   2.344   2.339   2.299   2.487   2.383   2.236   2.121   2.107   2.004   1.962   1.819   1.854   1.638   1.704   1.698   1.760
   266.71    1.994   1.929   2.092   2.168   2.227   2.202   2.176   2.299   2.542   2.544   2.463   2.228   2.376   2.243   2.346   2.335   2.213   2.289   2.252   2.407   2.332   2.207   2.473   2.332   2.276   2.468   2.291   2.122   2.094   1.831   1.672   1.575   1.771   1.704   1.681   1.654
   258.14    2.098   1.950   2.013   2.126   2.335   2.195   2.314   2.471   2.409   2.444   2.408   2.296   2.213   2.125   2.103   2.246   2.196   2.268   2.180   2.270   2.363   2.393   2.340   2.358   2.183   2.416   2.218   2.208   2.217   2.023   1.729   1.617   1.750   1.676   1.696   1.632
   249.57    1.912   1.974   2.059   2.183   2.180   2.215   2.290   2.309   2.360   2.412   2.445   2.315   2.165   2.149   2.229   2.386   2.298   2.258   2.418   2.293   2.301   2.360   2.335   2.304   2.276   2.159   2.265   2.062   2.095   1.923   1.723   1.625   1.680   1.699   1.722   1.783
   241.00    1.960   1.889   1.969   2.213   2.355   2.158   2.194   2.169   2.185   2.242   2.227   2.259   2.225   2.269   2.216   2.546   2.506   2.380   2.424   2.402   2.287   2.181   2.237   2.369   2.395   2.255   2.134   2.155   2.125   1.928   1.749   1.784   1.821   1.687   1.763   1.858
   232.43    2.203   2.031   1.981   2.158   2.165   2.208   2.007   2.037   2.073   2.214   2.141   2.131   2.216   2.118   2.228   2.392   2.442   2.523   2.341   2.377   2.356   2.324   2.268   2.285   2.366   2.330   2.255   2.228   2.134   1.986   1.838   1.812   1.912   1.874   1.762   1.814
   223.86    2.050   2.038   1.899   2.012   2.029   2.157   2.160   2.215   2.098   2.077   2.095   2.151   2.113   2.089   2.214   2.442   2.582   2.455   2.388   2.400   2.355   2.323   2.210   2.296   2.307   2.152   2.123   2.108   2.043   2.094   2.023   1.915   1.949   1.935   1.881   1.795
   215.29    1.951   2.008   1.832   2.031   2.050   2.231   2.399   2.140   2.054   2.021   2.007   2.034   2.097   2.087   2.262   2.305   2.390   2.396   2.452   2.484   2.372   2.323   2.239   2.179   2.139   2.057   1.969   1.892   2.008   1.941   1.994   2.024   2.091   2.139   1.980   1.945
   206.71    1.826   2.010   1.967   2.046   2.214   2.089   2.252   2.161   2.200   2.130   2.079   2.033   2.187   2.015   2.012   2.130   2.314   2.361   2.363   2.399   2.307   2.275   2.197   2.137   2.131   2.145   1.942   1.842   1.932   1.945   1.950   2.197   2.193   2.015   1.958   1.959
   198.14    1.964   1.944   1.989   1.979   2.112   1.975   2.166   2.262   2.351   2.316   2.224   2.055   2.092   1.923   2.075   1.985   2.148   2.338   2.311   2.248   2.174   2.189   2.184   2.036   2.065   1.987   1.937   2.020   2.008   2.005   1.995   2.154   2.158   1.954   1.977   1.936
   189.57    1.802   1.825   2.012   1.867   2.028   1.977   2.148   2.216   2.285   2.271   2.337   2.191   2.148   2.069   1.859   1.966   2.078   2.215   2.252   2.324   2.094   2.091   2.092   2.066   1.986   1.857   2.121   2.021   2.138   1.933   1.990   1.887   1.953   1.786   1.794   1.803
   181.00    1.743   1.766   1.859   1.952   2.011   1.884   2.105   2.140   2.187   2.257   2.194   2.072   2.112   2.041   1.901   1.999   2.083   2.138   2.295   2.325   2.311   2.318   2.122   2.081   2.049   2.118   2.049   2.125   2.115   2.135   2.100   1.947   1.875   1.775   1.855   1.877
   172.43    1.932   1.748   1.684   1.835   1.964   2.038   1.992   2.158   2.269   2.197   2.349   2.023   2.026   2.135   1.983   2.060   1.858   2.034   2.158   2.051   2.251   2.310   2.157   1.933   2.006   2.025   1.944   2.020   1.988   2.081   2.010   1.979   1.969   1.937   1.842   1.665
   163.86    1.756   1.719   1.809   1.724   1.909   1.870   1.950   2.099   2.140   2.190   2.255   2.131   2.113   1.982   2.149   2.082   2.015   1.996   2.068   2.043   2.139   2.230   2.217   2.124   2.041   2.002   2.005   1.915   1.876   1.863   1.952   2.032   2.027   1.800   1.822   1.614
   155.29    1.826   1.722   1.828   1.844   1.730   1.771   1.918   2.004   2.097   2.222   2.159   2.281   2.107   1.985   1.867   1.988   1.987   2.084   1.916   2.016   2.050   2.063   2.238   2.156   2.033   1.997   2.068   1.961   1.859   1.850   1.904   2.015   1.909   1.764   1.768   1.822
   146.71    1.860   1.677   1.718   1.548   1.663   1.836   1.868   1.832   1.855   1.987   2.017   2.264   2.085   1.981   1.860   1.922   2.014   1.844   1.945   1.975   1.893   1.843   1.966   2.211   2.055   1.999   1.896   1.935   1.743   1.760   1.755   1.867   1.787   1.619   1.716   1.774
   138.14    1.690   1.648   1.660   1.616   1.673   1.658   1.713   1.747   1.791   1.763   1.892   2.004   2.039   1.913   1.817   1.931   1.801   1.729   1.775   1.768   1.724   1.634   1.810   1.988   1.963   1.933   1.949   1.894   1.780   1.746   1.785   1.898   1.832   1.787   1.806   1.698
   129.57    1.767   1.653   1.580   1.616   1.607   1.632   1.702   1.698   1.549   1.665   1.866   1.835   1.820   1.926   1.865   1.854   1.794   1.676   1.652   1.723   1.613   1.755   1.783   1.864   1.931   1.809   1.706   1.754   1.889   1.822   1.736   1.937   1.903   1.958   2.039   1.985
   121.00    1.757   1.642   1.559   1.618   1.558   1.547   1.515   1.564   1.597   1.629   1.816   1.884   2.017   1.826   1.780   1.867   1.812   1.631   1.658   1.759   1.759   1.807   1.785   1.742   1.899   1.824   1.831   1.926   2.087   1.977   1.965   1.801   1.992   2.229   1.994   1.947
   112.43    1.646   1.757   1.627   1.625   1.517   1.505   1.490   1.405   1.534   1.621   1.709   1.850   1.884   1.732   1.705   1.828   1.726   1.657   1.677   1.611   1.726   1.718   1.671   1.771   1.747   1.739   1.821   1.927   2.064   2.090   2.037   1.979   1.972   2.201   1.979   2.103
   103.86    1.751   1.860   1.731   1.557   1.602   1.469   1.524   1.569   1.547   1.664   1.896   1.966   1.913   1.921   1.710   1.782   1.705   1.631   1.640   1.682   1.684   1.684   1.663   1.702   1.762   1.798   1.790   1.908   2.000   1.898   1.950   1.908   2.109   2.131   1.987   2.118
    95.29    1.760   1.864   1.836   1.738   1.687   1.462   1.515   1.602   1.605   1.860   1.798   1.766   1.840   1.776   1.528   1.539   1.659   1.514   1.569   1.617   1.576   1.597   1.635   1.722   1.680   1.846   1.921   1.931   1.872   1.918   2.015   1.959   2.001   1.894   1.931   1.939
    86.71    1.861   1.821   1.953   1.736   1.718   1.688   1.675   1.677   1.782   1.938   1.847   1.757   1.744   1.614   1.472   1.495   1.556   1.526   1.575   1.604   1.502   1.627   1.567   1.656   1.751   1.700   1.813   1.886   2.000   2.015   2.006   1.845   1.868   1.908   1.950   2.078
    78.14    1.963   1.936   1.899   1.881   1.795   1.777   1.937   1.880   1.813   1.750   1.908   1.862   1.742   1.636   1.599   1.614   1.671   1.700   1.705   1.550   1.409   1.532   1.559   1.638   1.672   1.729   1.885   1.904   1.963   1.879   1.968   1.908   1.764   1.809   1.941   1.873
    69.57    1.809   1.741   1.976   1.900   1.909   2.008   1.910   1.756   1.771   1.700   1.753   2.002   1.895   1.640   1.473   1.530   1.705   1.523   1.523   1.464   1.463   1.549   1.547   1.562   1.635   1.729   1.771   1.865   1.795   2.010   2.018   1.953   1.837   1.882   1.936   1.998
    61.00    1.930   1.856   1.972   1.989   1.914   1.911   1.892   1.796   1.784   1.780   1.884   1.870   1.836   1.469   1.515   1.413   1.578   1.398   1.596   1.608   1.572   1.507   1.485   1.534   1.587   1.660   1.576   1.770   1.746   1.973   2.085   1.944   1.891   1.865   1.811   1.822
    52.43    2.071   2.028   2.008   2.099   1.932   1.833   1.911   1.789   1.803   1.718   1.837   1.757   1.603   1.548   1.506   1.513   1.641   1.707   1.614   1.653   1.597   1.742   1.640   1.567   1.568   1.713   1.775   1.773   1.955   2.111   2.047   1.933   1.778   1.847   1.911   1.889
    43.86    2.038   2.160   2.213   2.124   2.059   1.797   1.792   1.786   1.816   1.744   1.776   1.707   1.588   1.671   1.721   1.603   1.789   1.916   1.720   1.541   1.564   1.654   1.735   1.684   1.727   1.751   1.827   1.942   1.998   2.175   1.901   1.812   1.866   1.879   1.885   1.889
    35.29    2.074   2.191   2.183   2.084   2.033   1.931   1.883   1.811   1.775   1.908   1.892   1.804   1.712   1.781   1.791   1.789   1.757   1.842   1.782   1.693   1.653   1.713   1.785   1.863   1.781   1.929   1.808   1.884   1.992   1.940   1.913   1.792   1.927   1.812   1.884   1.988
    26.71    2.039   2.042   2.090   2.033   1.981   1.822   1.826   1.728   1.837   1.806   1.660   1.791   1.743   1.766   1.782   1.700   1.835   1.788   1.759   1.700   1.808   1.853   1.769   1.804   1.835   1.798   1.861   1.910   1.892   1.790   1.761   1.707   1.809   1.798   1.868   1.804
    18.14    2.036   2.048   2.005   2.028   1.983   1.863   1.670   1.824   1.762   1.848   1.822   1.586   1.813   1.873   1.844   1.813   2.022   1.898   1.814   1.776   1.775   1.867   1.675   1.742   1.955   1.876   1.885   2.014   1.873   1.715   1.637   1.756   1.696   1.745   1.766   1.875
     9.57    2.002   2.026   1.907   1.911   1.830   1.814   1.846   1.863   1.975   1.919   1.937   1.786   1.765   1.723   1.841   1.797   1.900   1.908   1.919   1.783   1.700   1.836   1.700   1.826   1.976   1.831   1.953   1.852   1.879   1.804   1.821   1.808   1.732   1.735   1.613   1.721
     1.00    1.913   1.931   1.920   1.814   1.710   1.827   1.905   2.021   2.068   2.041   1.943   1.949   1.765   1.732   1.746   1.877   1.848   1.846   1.903   1.900   1.828   1.756   1.808   1.854   1.921   1.806   1.741   1.843   1.665   1.590   1.704   1.774   1.770   1.667   1.726   1.696

   Height   Standard deviation at grid points for the v component:
   301.00    1.933   1.933   1.933   1.933   1.933   1.933   1.933   1.933   1.933   1.933   1.933   1.933   1.933   1.933   1.933   1.933   1.933   1.933   1.933   1.933   1.933   1.933   1.933   1.933   1.933   1.933   1.933   1.933   1.933   1.933   1.933   1.933   1.933   1.933   1.933   1.933
   292.43    1.933   1.933   1.933   1.933   1.933   1.933   1.933   1.933   1.933   1.933   1.933   1.933   1.933   1.933   1.933   1.933   1.933   1.933   1.933   1.933   1.933   1.933   1.933   1.933   1.933   1.933   1.933   1.933   1.933   1.933   1.933   1.933   1.933   1.933   1.933   1.933
   283.86    1.933   1.933   1.933   1.933   1.933   1.933   1.933   1.933   1.933   1.933   1.933   1.933   1.933   1.933   1.933   1.933   1.933   1.933   1.933   1.933   1.933   1.933   1.933   1.933   1.933   1.933   1.933   1.933   1.933   1.933   1.933   1.933   1.933   1.933   1.933   1.933
   275.29    1.933   1.933   1.933   1.933   1.933   1.933   1.933   1.933   1.933   1.933   1.933   1.933   1.933   1.933   1.933   1.933   1.933   1.933   1.933   1.933   1.933   1.933   1.933   1.933   1.933   1.933   1.933   1.933   1.933   1.933   1.933   1.933   1.933   1.933   1.933   1.933
   266.71    1.933   1.933   1.933   1.933   1.933   1.933   1.933   1.933   1.933   1.933   1.933   1.933   1.933   1.933   1.933   1.933   1.933   1.933   1.933   1.933   1.933   1.933   1.933   1.933   1.933   1.933   1.933   1.933   1.933   1.933   1.933   1.933   1.933   1.933   1.933   1.933
   258.14    1.933   1.933   1.933   1.933   1.933   1.933   1.933   1.933   1.933   1.933   1.933   1.933   1.933   1.933   1.933   1.933   1.933   1.933   1.933   1.933   1.933   1.933   1.933   1.933   1.933   1.933   1.933   1.933   1.933   1.933   1.933   1.933   1.933   1.933   1.933   1.933
   249.57    1.933   1.933   1.933   1.933   1.933   1.933   1.933   1.933   1.933   1.933   1.933   1.933   1.933   1.933   1.933   1.933   1.933   1.933   1.933   1.933   1.933   1.933   1.933   1.933   1.933   1.933   1.933   1.933   1.933   1.933   1.933   1.933   1.933   1.933   1.933   1.933
   241.00    1.933   1.933   1.933   1.933   1.933   1.933   1.933   1.933   1.933   1.933   1.933   1.933   1.933   1.933   1.933   1.933   1.933   1.933   1.933   1.933   1.933   1.933   1.933   1.933   1.933   1.933   1.933   1.933   1.933   1.933   1.933   1.933   1.933   1.933   1.933   1.933
   232.43    1.933   1.933   1.933   1.933   1.933   1.933   1.933   1.933   1.933   1.933   1.933   1.933   1.933   1.933   1.933   1.933   1.933   1.933   1.933   1.933   1.933   1.933   1.933   1.933   1.933   1.933   1.933   1.933   1.933   1.933   1.933   1.933   1.933   1.933   1.933   1.933
   223.86    1.933   1.933   1.933   1.933   1.933   1.933   1.933   1.933   1.933   1.933   1.933   1.933   1.933   1.933   1.933   1.933   1.933   1.933   1.933   1.933   1.933   1.933   1.933   1.933   1.933   1.933   1.933   1.933   1.933   1.933   1.933   1.933   1.933   1.933   1.933   1.933
   215.29    1.933   1.933   1.933   1.933   1.933   1.933   1.933   1.933   1.933   1.933   1.933   1.933   1.933   1.933   1.933   1.933   1.933   1.933   1.933   1.933   1.933   1.933   1.933   1.933   1.933   1.933   1.933   1.933   1.933   1.933   1.933   1.933   1.933   1.933   1.933   1.933
   206.71    1.933   1.933   1.933   1.933   1.933   1.933   1.933   1.933   1.933   1.933   1.933   1.933   1.933   1.933   1.933   1.933   1.933   1.933   1.933   1.933   1.933   1.933   1.933   1.933   1.933   1.933   1.933   1.933   1.933   1.933   1.933   1.933   1.933   1.933   1.933   1.933
   198.14    1.933   1.933   1.933   1.933   1.933   1.933   1.933   1.933   1.933   1.933   1.933   1.933   1.933   1.933   1.933   1.933   1.933   1.933   1.933   1.933   1.933   1.933   1.933   1.933   1.933   1.933   1.933   1.933   1.933   1.933   1.933   1.933   1.933   1.933   1.933   1.933
   189.57    1.933   1.933   1.933   1.933   1.933   1.933   1.933   1.933   1.933   1.933   1.933   1.933   1.933   1.933   1.933   1.933   1.933   1.933   1.933   1.933   1.933   1.933   1.933   1.933   1.933   1.933   1.933   1.933   1.933   1.933   1.933   1.933   1.933   1.933   1.933   1.933
   181.00    1.933   1.933   1.933   1.933   1.933   1.933   1.933   1.933   1.933   1.933   1.933   1.933   1.933   1.933   1.933   1.933   1.933   1.933   1.933   1.933   1.933   1.933   1.933   1.933   1.933   1.933   1.933   1.933   1.933   1.933   1.933   1.933   1.933   1.933   1.933   1.933
   172.43    1.933   1.933   1.933   1.933   1.933   1.933   1.933   1.933   1.933   1.933   1.933   1.933   1.933   1.933   1.933   1.933   1.933   1.933   1.933   1.933   1.933   1.933   1.933   1.933   1.933   1.933   1.933   1.933   1.933   1.933   1.933   1.933   1.933   1.933   1.933   1.933
   163.86    1.933   1.933   1.933   1.933   1.933   1.933   1.933   1.933   1.933   1.933   1.933   1.933   1.933   1.933   1.933   1.933   1.933   1.933   1.933   1.933   1.933   1.933   1.933   1.933   1.933   1.933   1.933   1.933   1.933   1.933   1.933   1.933   1.933   1.933   1.933   1.933
   155.29    1.933   1.933   1.933   1.933   1.933   1.933   1.933   1.933   1.933   1.933   1.933   1.933   1.933   1.933   1.933   1.933   1.933   1.933   1.933   1.933   1.933   1.933   1.933   1.933   1.933   1.933   1.933   1.933   1.933   1.933   1.933   1.933   1.933   1.933   1.933   1.933
   146.71    1.933   1.933   1.933   1.933   1.933   1.933   1.933   1.933   1.933   1.933   1.933   1.933   1.933   1.933   1.933   1.933   1.933   1.933   1.933   1.933   1.933   1.933   1.933   1.933   1.933   1.933   1.933   1.933   1.933   1.933   1.933   1.933   1.933   1.933   1.933   1.933
   138.14    1.933   1.933   1.933   1.933   1.933   1.933   1.933   1.933   1.933   1.933   1.933   1.933   1.933   1.933   1.933   1.933   1.933   1.933   1.933   1.933   1.933   1.933   1.933   1.933   1.933   1.933   1.933   1.933   1.933   1.933   1.933   1.933   1.933   1.933   1.933   1.933
   129.57    1.933   1.933   1.933   1.933   1.933   1.933   1.933   1.933   1.933   1.933   1.933   1.933   1.933   1.933   1.933   1.933   1.933   1.933   1.933   1.933   1.933   1.933   1.933   1.933   1.933   1.933   1.933   1.933   1.933   1.933   1.933   1.933   1.933   1.933   1.933   1.933
   121.00    1.933   1.933   1.933   1.933   1.933   1.933   1.933   1.933   1.933   1.933   1.933   1.933   1.933   1.933   1.933   1.933   1.933   1.933   1.933   1.933   1.933   1.933   1.933   1.933   1.933   1.933   1.933   1.933   1.933   1.933   1.933   1.933   1.933   1.933   1.933   1.933
   112.43    1.933   1.933   1.933   1.933   1.933   1.933   1.933   1.933   1.933   1.933   1.933   1.933   1.933   1.933   1.933   1.933   1.933   1.933   1.933   1.933   1.933   1.933   1.933   1.933   1.933   1.933   1.933   1.933   1.933   1.933   1.933   1.933   1.933   1.933   1.933   1.933
   103.86    1.933   1.933   1.933   1.933   1.933   1.933   1.933   1.933   1.933   1.933   1.933   1.933   1.933   1.933   1.933   1.933   1.933   1.933   1.933   1.933   1.933   1.933   1.933   1.933   1.933   1.933   1.933   1.933   1.933   1.933   1.933   1.933   1.933   1.933   1.933   1.933
    95.29    1.933   1.933   1.933   1.933   1.933   1.933   1.933   1.933   1.933   1.933   1.933   1.933   1.933   1.933   1.933   1.933   1.933   1.933   1.933   1.933   1.933   1.933   1.933   1.933   1.933   1.933   1.933   1.933   1.933   1.933   1.933   1.933   1.933   1.933   1.933   1.933
    86.71    1.933   1.933   1.933   1.933   1.933   1.933   1.933   1.933   1.933   1.933   1.933   1.933   1.933   1.933   1.933   1.933   1.933   1.933   1.933   1.933   1.933   1.933   1.933   1.933   1.933   1.933   1.933   1.933   1.933   1.933   1.933   1.933   1.933   1.933   1.933   1.933
    78.14    1.933   1.933   1.933   1.933   1.933   1.933   1.933   1.933   1.933   1.933   1.933   1.933   1.933   1.933   1.933   1.933   1.933   1.933   1.933   1.933   1.933   1.933   1.933   1.933   1.933   1.933   1.933   1.933   1.933   1.933   1.933   1.933   1.933   1.933   1.933   1.933
    69.57    1.933   1.933   1.933   1.933   1.933   1.933   1.933   1.933   1.933   1.933   1.933   1.933   1.933   1.933   1.933   1.933   1.933   1.933   1.933   1.933   1.933   1.933   1.933   1.933   1.933   1.933   1.933   1.933   1.933   1.933   1.933   1.933   1.933   1.933   1.933   1.933
    61.00    1.933   1.933   1.933   1.933   1.933   1.933   1.933   1.933   1.933   1.933   1.933   1.933   1.933   1.933   1.933   1.933   1.933   1.933   1.933   1.933   1.933   1.933   1.933   1.933   1.933   1.933   1.933   1.933   1.933   1.933   1.933   1.933   1.933   1.933   1.933   1.933
    52.43    1.933   1.933   1.933   1.933   1.933   1.933   1.933   1.933   1.933   1.933   1.933   1.933   1.933   1.933   1.933   1.933   1.933   1.933   1.933   1.933   1.933   1.933   1.933   1.933   1.933   1.933   1.933   1.933   1.933   1.933   1.933   1.933   1.933   1.933   1.933   1.933
    43.86    1.933   1.933   1.933   1.933   1.933   1.933   1.933   1.933   1.933   1.933   1.933   1.933   1.933   1.933   1.933   1.933   1.933   1.933   1.933   1.933   1.933   1.933   1.933   1.933   1.933   1.933   1.933   1.933   1.933   1.933   1.933   1.933   1.933   1.933   1.933   1.933
    35.29    1.933   1.933   1.933   1.933   1.933   1.933   1.933   1.933   1.933   1.933   1.933   1.933   1.933   1.933   1.933   1.933   1.933   1.933   1.933   1.933   1.933   1.933   1.933   1.933   1.933   1.933   1.933   1.933   1.933   1.933   1.933   1.933   1.933   1.933   1.933   1.933
    26.71    1.933   1.933   1.933   1.933   1.933   1.933   1.933   1.933   1.933   1.933   1.933   1.933   1.933   1.933   1.933   1.933   1.933   1.933   1.933   1.933   1.933   1.933   1.933   1.933   1.933   1.933   1.933   1.933   1.933   1.933   1.933   1.933   1.933   1.933   1.933   1.933
    18.14    1.933   1.933   1.933   1.933   1.933   1.933   1.933   1.933   1.933   1.933   1.933   1.933   1.933   1.933   1.933   1.933   1.933   1.933   1.933   1.933   1.933   1.933   1.933   1.933   1.933   1.933   1.933   1.933   1.933   1.933   1.933   1.933   1.933   1.933   1.933   1.933
     9.57    1.933   1.933   1.933   1.933   1.933   1.933   1.933   1.933   1.933   1.933   1.933   1.933   1.933   1.933   1.933   1.933   1.933   1.933   1.933   1.933   1.933   1.933   1.933   1.933   1.933   1.933   1.933   1.933   1.933   1.933   1.933   1.933   1.933   1.933   1.933   1.933
     1.00    1.933   1.933   1.933   1.933   1.933   1.933   1.933   1.933   1.933   1.933   1.933   1.933   1.933   1.933   1.933   1.933   1.933   1.933   1.933   1.933   1.933   1.933   1.933   1.933   1.933   1.933   1.933   1.933   1.933   1.933   1.933   1.933   1.933   1.933   1.933   1.933

   Height   Standard deviation at grid points for the w component:
   301.00    1.933   1.933   1.933   1.933   1.933   1.933   1.933   1.933   1.933   1.933   1.933   1.933   1.933   1.933   1.933   1.933   1.933   1.933   1.933   1.933   1.933   1.933   1.933   1.933   1.933   1.933   1.933   1.933   1.933   1.933   1.933   1.933   1.933   1.933   1.933   1.933
   292.43    1.933   1.933   1.933   1.933   1.933   1.933   1.933   1.933   1.933   1.933   1.933   1.933   1.933   1.933   1.933   1.933   1.933   1.933   1.933   1.933   1.933   1.933   1.933   1.933   1.933   1.933   1.933   1.933   1.933   1.933   1.933   1.933   1.933   1.933   1.933   1.933
   283.86    1.933   1.933   1.933   1.933   1.933   1.933   1.933   1.933   1.933   1.933   1.933   1.933   1.933   1.933   1.933   1.933   1.933   1.933   1.933   1.933   1.933   1.933   1.933   1.933   1.933   1.933   1.933   1.933   1.933   1.933   1.933   1.933   1.933   1.933   1.933   1.933
   275.29    1.933   1.933   1.933   1.933   1.933   1.933   1.933   1.933   1.933   1.933   1.933   1.933   1.933   1.933   1.933   1.933   1.933   1.933   1.933   1.933   1.933   1.933   1.933   1.933   1.933   1.933   1.933   1.933   1.933   1.933   1.933   1.933   1.933   1.933   1.933   1.933
   266.71    1.933   1.933   1.933   1.933   1.933   1.933   1.933   1.933   1.933   1.933   1.933   1.933   1.933   1.933   1.933   1.933   1.933   1.933   1.933   1.933   1.933   1.933   1.933   1.933   1.933   1.933   1.933   1.933   1.933   1.933   1.933   1.933   1.933   1.933   1.933   1.933
   258.14    1.933   1.933   1.933   1.933   1.933   1.933   1.933   1.933   1.933   1.933   1.933   1.933   1.933   1.933   1.933   1.933   1.933   1.933   1.933   1.933   1.933   1.933   1.933   1.933   1.933   1.933   1.933   1.933   1.933   1.933   1.933   1.933   1.933   1.933   1.933   1.933
   249.57    1.933   1.933   1.933   1.933   1.933   1.933   1.933   1.933   1.933   1.933   1.933   1.933   1.933   1.933   1.933   1.933   1.933   1.933   1.933   1.933   1.933   1.933   1.933   1.933   1.933   1.933   1.933   1.933   1.933   1.933   1.933   1.933   1.933   1.933   1.933   1.933
   241.00    1.933   1.933   1.933   1.933   1.933   1.933   1.933   1.933   1.933   1.933   1.933   1.933   1.933   1.933   1.933   1.933   1.933   1.933   1.933   1.933   1.933   1.933   1.933   1.933   1.933   1.933   1.933   1.933   1.933   1.933   1.933   1.933   1.933   1.933   1.933   1.933
   232.43    1.933   1.933   1.933   1.933   1.933   1.933   1.933   1.933   1.933   1.933   1.933   1.933   1.933   1.933   1.933   1.933   1.933   1.933   1.933   1.933   1.933   1.933   1.933   1.933   1.933   1.933   1.933   1.933   1.933   1.933   1.933   1.933   1.933   1.933   1.933   1.933
   223.86    1.933   1.933   1.933   1.933   1.933   1.933   1.933   1.933   1.933   1.933   1.933   1.933   1.933   1.933   1.933   1.933   1.933   1.933   1.933   1.933   1.933   1.933   1.933   1.933   1.933   1.933   1.933   1.933   1.933   1.933   1.933   1.933   1.933   1.933   1.933   1.933
   215.29    1.933   1.933   1.933   1.933   1.933   1.933   1.933   1.933   1.933   1.933   1.933   1.933   1.933   1.933   1.933   1.933   1.933   1.933   1.933   1.933   1.933   1.933   1.933   1.933   1.933   1.933   1.933   1.933   1.933   1.933   1.933   1.933   1.933   1.933   1.933   1.933
   206.71    1.933   1.933   1.933   1.933   1.933   1.933   1.933   1.933   1.933   1.933   1.933   1.933   1.933   1.933   1.933   1.933   1.933   1.933   1.933   1.933   1.933   1.933   1.933   1.933   1.933   1.933   1.933   1.933   1.933   1.933   1.933   1.933   1.933   1.933   1.933   1.933
   198.14    1.933   1.933   1.933   1.933   1.933   1.933   1.933   1.933   1.933   1.933   1.933   1.933   1.933   1.933   1.933   1.933   1.933   1.933   1.933   1.933   1.933   1.933   1.933   1.933   1.933   1.933   1.933   1.933   1.933   1.933   1.933   1.933   1.933   1.933   1.933   1.933
   189.57    1.933   1.933   1.933   1.933   1.933   1.933   1.933   1.933   1.933   1.933   1.933   1.933   1.933   1.933   1.933   1.933   1.933   1.933   1.933   1.933   1.933   1.933   1.933   1.933   1.933   1.933   1.933   1.933   1.933   1.933   1.933   1.933   1.933   1.933   1.933   1.933
   181.00    1.933   1.933   1.933   1.933   1.933   1.933   1.933   1.933   1.933   1.933   1.933   1.933   1.933   1.933   1.933   1.933   1.933   1.933   1.933   1.933   1.933   1.933   1.933   1.933   1.933   1.933   1.933   1.933   1.933   1.933   1.933   1.933   1.933   1.933   1.933   1.933
   172.43    1.933   1.933   1.933   1.933   1.933   1.933   1.933   1.933   1.933   1.933   1.933   1.933   1.933   1.933   1.933   1.933   1.933   1.933   1.933   1.933   1.933   1.933   1.933   1.933   1.933   1.933   1.933   1.933   1.933   1.933   1.933   1.933   1.933   1.933   1.933   1.933
   163.86    1.933   1.933   1.933   1.933   1.933   1.933   1.933   1.933   1.933   1.933   1.933   1.933   1.933   1.933   1.933   1.933   1.933   1.933   1.933   1.933   1.933   1.933   1.933   1.933   1.933   1.933   1.933   1.933   1.933   1.933   1.933   1.933   1.933   1.933   1.933   1.933
   155.29    1.933   1.933   1.933   1.933   1.933   1.933   1.933   1.933   1.933   1.933   1.933   1.933   1.933   1.933   1.933   1.933   1.933   1.933   1.933   1.933   1.933   1.933   1.933   1.933   1.933   1.933   1.933   1.933   1.933   1.933   1.933   1.933   1.933   1.933   1.933   1.933
   146.71    1.933   1.933   1.933   1.933   1.933   1.933   1.933   1.933   1.933   1.933   1.933   1.933   1.933   1.933   1.933   1.933   1.933   1.933   1.933   1.933   1.933   1.933   1.933   1.933   1.933   1.933   1.933   1.933   1.933   1.933   1.933   1.933   1.933   1.933   1.933   1.933
   138.14    1.933   1.933   1.933   1.933   1.933   1.933   1.933   1.933   1.933   1.933   1.933   1.933   1.933   1.933   1.933   1.933   1.933   1.933   1.933   1.933   1.933   1.933   1.933   1.933   1.933   1.933   1.933   1.933   1.933   1.933   1.933   1.933   1.933   1.933   1.933   1.933
   129.57    1.933   1.933   1.933   1.933   1.933   1.933   1.933   1.933   1.933   1.933   1.933   1.933   1.933   1.933   1.933   1.933   1.933   1.933   1.933   1.933   1.933   1.933   1.933   1.933   1.933   1.933   1.933   1.933   1.933   1.933   1.933   1.933   1.933   1.933   1.933   1.933
   121.00    1.933   1.933   1.933   1.933   1.933   1.933   1.933   1.933   1.933   1.933   1.933   1.933   1.933   1.933   1.933   1.933   1.933   1.933   1.933   1.933   1.933   1.933   1.933   1.933   1.933   1.933   1.933   1.933   1.933   1.933   1.933   1.933   1.933   1.933   1.933   1.933
   112.43    1.933   1.933   1.933   1.933   1.933   1.933   1.933   1.933   1.933   1.933   1.933   1.933   1.933   1.933   1.933   1.933   1.933   1.933   1.933   1.933   1.933   1.933   1.933   1.933   1.933   1.933   1.933   1.933   1.933   1.933   1.933   1.933   1.933   1.933   1.933   1.933
   103.86    1.933   1.933   1.933   1.933   1.933   1.933   1.933   1.933   1.933   1.933   1.933   1.933   1.933   1.933   1.933   1.933   1.933   1.933   1.933   1.933   1.933   1.933   1.933   1.933   1.933   1.933   1.933   1.933   1.933   1.933   1.933   1.933   1.933   1.933   1.933   1.933
    95.29    1.933   1.933   1.933   1.933   1.933   1.933   1.933   1.933   1.933   1.933   1.933   1.933   1.933   1.933   1.933   1.933   1.933   1.933   1.933   1.933   1.933   1.933   1.933   1.933   1.933   1.933   1.933   1.933   1.933   1.933   1.933   1.933   1.933   1.933   1.933   1.933
    86.71    1.933   1.933   1.933   1.933   1.933   1.933   1.933   1.933   1.933   1.933   1.933   1.933   1.933   1.933   1.933   1.933   1.933   1.933   1.933   1.933   1.933   1.933   1.933   1.933   1.933   1.933   1.933   1.933   1.933   1.933   1.933   1.933   1.933   1.933   1.933   1.933
    78.14    1.933   1.933   1.933   1.933   1.933   1.933   1.933   1.933   1.933   1.933   1.933   1.933   1.933   1.933   1.933   1.933   1.933   1.933   1.933   1.933   1.933   1.933   1.933   1.933   1.933   1.933   1.933   1.933   1.933   1.933   1.933   1.933   1.933   1.933   1.933   1.933
    69.57    1.933   1.933   1.933   1.933   1.933   1.933   1.933   1.933   1.933   1.933   1.933   1.933   1.933   1.933   1.933   1.933   1.933   1.933   1.933   1.933   1.933   1.933   1.933   1.933   1.933   1.933   1.933   1.933   1.933   1.933   1.933   1.933   1.933   1.933   1.933   1.933
    61.00    1.933   1.933   1.933   1.933   1.933   1.933   1.933   1.933   1.933   1.933   1.933   1.933   1.933   1.933   1.933   1.933   1.933   1.933   1.933   1.933   1.933   1.933   1.933   1.933   1.933   1.933   1.933   1.933   1.933   1.933   1.933   1.933   1.933   1.933   1.933   1.933
    52.43    1.933   1.933   1.933   1.933   1.933   1.933   1.933   1.933   1.933   1.933   1.933   1.933   1.933   1.933   1.933   1.933   1.933   1.933   1.933   1.933   1.933   1.933   1.933   1.933   1.933   1.933   1.933   1.933   1.933   1.933   1.933   1.933   1.933   1.933   1.933   1.933
    43.86    1.933   1.933   1.933   1.933   1.933   1.933   1.933   1.933   1.933   1.933   1.933   1.933   1.933   1.933   1.933   1.933   1.933   1.933   1.933   1.933   1.933   1.933   1.933   1.933   1.933   1.933   1.933   1.933   1.933   1.933   1.933   1.933   1.933   1.933   1.933   1.933
    35.29    1.933   1.933   1.933   1.933   1.933   1.933   1.933   1.933   1.933   1.933   1.933   1.933   1.933   1.933   1.933   1.933   1.933   1.933   1.933   1.933   1.933   1.933   1.933   1.933   1.933   1.933   1.933   1.933   1.933   1.933   1.933   1.933   1.933   1.933   1.933   1.933
    26.71    1.933   1.933   1.933   1.933   1.933   1.933   1.933   1.933   1.933   1.933   1.933   1.933   1.933   1.933   1.933   1.933   1.933   1.933   1.933   1.933   1.933   1.933   1.933   1.933   1.933   1.933   1.933   1.933   1.933   1.933   1.933   1.933   1.933   1.933   1.933   1.933
    18.14    1.933   1.933   1.933   1.933   1.933   1.933   1.933   1.933   1.933   1.933   1.933   1.933   1.933   1.933   1.933   1.933   1.933   1.933   1.933   1.933   1.933   1.933   1.933   1.933   1.933   1.933   1.933   1.933   1.933   1.933   1.933   1.933   1.933   1.933   1.933   1.933
     9.57    1.933   1.933   1.933   1.933   1.933   1.933   1.933   1.933   1.933   1.933   1.933   1.933   1.933   1.933   1.933   1.933   1.933   1.933   1.933   1.933   1.933   1.933   1.933   1.933   1.933   1.933   1.933   1.933   1.933   1.933   1.933   1.933   1.933   1.933   1.933   1.933
     1.00    1.933   1.933   1.933   1.933   1.933   1.933   1.933   1.933   1.933   1.933   1.933   1.933   1.933   1.933   1.933   1.933   1.933   1.933   1.933   1.933   1.933   1.933   1.933   1.933   1.933   1.933   1.933   1.933   1.933   1.933   1.933   1.933   1.933   1.933   1.933   1.933

   Mean standard deviation across all grid points:
      u component:    1.956 m/s
      v component:    1.933 m/s
      w component:    1.933 m/s


U-component (X) statistics from the interpolated hub point:

   Mean =   8.9758 m/s
   TI   =  19.4920 %


Normalizing Parameters for Binary Data (approximate statistics):

   UBar  =   8.9763 m/s
   TI(u) =  21.0485 %
   TI(v) =  21.5387 %
   TI(w) =  21.5387 %

   Height Offset =   0.0000 m
   Grid Base     =   1.0000 m

Creating a PERIODIC output file.


Processing complete.  6.5156 CPU seconds used.
