
This summary file was generated by TurbSim (v2.00.07a-bjj, 14-Jun-2016) on 03-Nov-2023 at 03:31:25.


Runtime Options:

      1301  Random seed #1
    RANLUX  Type of random number generator
         F  Output binary HH turbulence parameters?
         F  Output formatted turbulence parameters?
         F  Output AeroDyn HH files?
         F  Output AeroDyn FF files?
         T  Output BLADED FF files?
         F  Output tower data?
         F  Output formatted FF files?
         F  Output coherent turbulence time step file?
         T  Clockwise rotation when looking downwind?
 0 -  NONE  IEC turbulence models scaled to exact specified standard deviation


Turbine/Model Specifications:

        36  Vertical grid-point matrix dimension
        36  Horizontal grid-point matrix dimension
     0.100  Time step [seconds]
   660.000  Analysis time [seconds]
   660.000  Usable output time [seconds]
   151.000  Hub height [m]
   300.000  Grid height [m]
   300.000  Grid width [m]
     0.000  Vertical flow angle [degrees]
     0.000  Horizontal flow angle [degrees]


Meteorological Boundary Conditions:

    IECVKM  IEC von Karman spectral model
         1  IEC standard: IEC 61400-1 Ed. 3: 2005
         A  IEC turbulence characteristic
       NTM  IEC Normal Turbulence Model
       N/A  IEC Extreme Turbulence Model (ETM) "c" parameter [m/s]
       PL   Wind profile type
   153.000  Reference height [m]
     9.000  Reference wind speed [m/s]
       N/A  Jet height [m]
     0.200  Power law exponent
     0.030  Surface roughness length [m]


Non-IEC Meteorological Boundary Conditions:

       N/A  Site latitude [degrees]
       N/A  Gradient Richardson number
       N/A  Friction or shear velocity [m/s]
       N/A  Mixing layer depth [m]
       N/A  Mean hub u'w' Reynolds stress
       N/A  Mean hub u'v' Reynolds stress
       N/A  Mean hub v'w' Reynolds stress


Spatial Coherence Models:

       IEC  u-component coherence model
      NONE  v-component coherence model
      NONE  w-component coherence model
(   12.000, 0.353E-03)  u-component coherence parameters
                   N/A  v-component coherence parameters
                   N/A  w-component coherence parameters
       N/A  Coherence exponent


You have requested that the following file(s) be generated:

   G:\2023\OpenWECDV1.0.0_x64\BaseLIne\wind\WindL_V_9_seed_1301.wnd (AeroDyn/BLADED full-field wnd file)


Turbulence Simulation Scaling Parameter Summary:

   Turbulence model used                            =  IEC von Karman
   Turbulence characteristic                        =  A
   IEC turbulence type                              =  Normal Turbulence Model
   IEC standard                                     =  IEC 61400-1 Ed. 3: 2005
   Mean wind speed at hub height                    =    8.976 m/s
   Expected value of turbulence intensity at 15 m/s =   16.000%
   Characteristic value of standard deviation       =    1.973 m/s
   Turbulence scale                                 =   42.000 m
   Isotropic integral scale                         =  147.000 m
   Characteristic value of hub turbulence intensity =   21.982%
   Gradient Richardson number                       =    0.000

   Wind profile type                                =  Power law
   Power law exponent                               =    0.200
   Mean shear across rotor disk                     =    0.023 (m/s)/m
   Assumed rotor diameter                           =  300.000 m
   Surface roughness length                         =    0.030 m

   Nyquist frequency of turbulent wind field        =    5.000 Hz

   Number of time steps in the FFT                  =     6600
   Number of time steps output                      =     6600
   Number of points simulated                       =     1297


Mean Flow Angles:

   Vertical   =   0.0 degrees
   Horizontal =   0.0 degrees

Mean Wind Speed Profile:

   Height    Wind Speed   Horizontal Angle  Vertical Angle  U-comp (X)   V-comp (Y)   W-comp (Z)
     (m)        (m/s)         (degrees)       (degrees)       (m/s)        (m/s)        (m/s)   
   ------    ----------   ----------------  --------------  ----------   ----------   ----------
    301.0       10.30            0.00            0.00         10.30         0.00         0.00
    292.4       10.24            0.00            0.00         10.24         0.00         0.00
    283.9       10.18            0.00            0.00         10.18         0.00         0.00
    275.3       10.12            0.00            0.00         10.12         0.00         0.00
    266.7       10.06            0.00            0.00         10.06         0.00         0.00
    258.1        9.99            0.00            0.00          9.99         0.00         0.00
    249.6        9.93            0.00            0.00          9.93         0.00         0.00
    241.0        9.86            0.00            0.00          9.86         0.00         0.00
    232.4        9.79            0.00            0.00          9.79         0.00         0.00
    223.9        9.71            0.00            0.00          9.71         0.00         0.00
    215.3        9.64            0.00            0.00          9.64         0.00         0.00
    206.7        9.56            0.00            0.00          9.56         0.00         0.00
    198.1        9.48            0.00            0.00          9.48         0.00         0.00
    189.6        9.39            0.00            0.00          9.39         0.00         0.00
    181.0        9.31            0.00            0.00          9.31         0.00         0.00
    172.4        9.22            0.00            0.00          9.22         0.00         0.00
    163.9        9.12            0.00            0.00          9.12         0.00         0.00
    155.3        9.03            0.00            0.00          9.03         0.00         0.00
    151.0        8.98            0.00            0.00          8.98         0.00         0.00
    146.7        8.92            0.00            0.00          8.92         0.00         0.00
    138.1        8.82            0.00            0.00          8.82         0.00         0.00
    129.6        8.71            0.00            0.00          8.71         0.00         0.00
    121.0        8.59            0.00            0.00          8.59         0.00         0.00
    112.4        8.46            0.00            0.00          8.46         0.00         0.00
    103.9        8.33            0.00            0.00          8.33         0.00         0.00
     95.3        8.19            0.00            0.00          8.19         0.00         0.00
     86.7        8.03            0.00            0.00          8.03         0.00         0.00
     78.1        7.87            0.00            0.00          7.87         0.00         0.00
     69.6        7.69            0.00            0.00          7.69         0.00         0.00
     61.0        7.49            0.00            0.00          7.49         0.00         0.00
     52.4        7.26            0.00            0.00          7.26         0.00         0.00
     43.9        7.01            0.00            0.00          7.01         0.00         0.00
     35.3        6.71            0.00            0.00          6.71         0.00         0.00
     26.7        6.35            0.00            0.00          6.35         0.00         0.00
     18.1        5.88            0.00            0.00          5.88         0.00         0.00
      9.6        5.17            0.00            0.00          5.17         0.00         0.00
      1.0        3.29            0.00            0.00          3.29         0.00         0.00


Harvested Random Seeds after Generation of the Random Numbers:

    119307688 K 1
            0 K 2


Hub-Height Simulated Turbulence Statistical Summary:

   Type of Wind        Min (m/s)   Mean (m/s)    Max (m/s)  Sigma (m/s)       TI (%)
   ----------------    ---------   ----------    ---------  -----------       ------
   Longitudinal (u)         2.19         8.98        14.15        1.976       22.019
   Lateral (v)             -6.20        -0.00         5.90        1.933       21.539
   Vertical (w)            -5.31        -0.00         5.83        1.933       21.539
   U component              2.19         8.98        14.15        1.976       22.019
   V component             -6.20        -0.00         5.90        1.933       21.539
   W component             -5.31        -0.00         5.83        1.933       21.539
   Horizontal (U&V)         2.60         9.19        14.15        1.952       21.243
   Total                    2.64         9.39        14.16        1.934       20.587

                       Min Reynolds     Mean Reynolds    Max Reynolds    Correlation
   Product             Stress (m/s)^2   Stress (m/s)^2   Stress (m/s)^2  Coefficient
   ----------------    --------------   --------------   --------------  -----------
   u'w'                    -17.565            -0.102            16.245        -0.027
   u'v'                    -20.658            -0.086            12.912        -0.022
   v'w'                    -17.370             0.391            28.573         0.104


   Friction Velocity (Ustar)  =      0.319 m/s
   Maximum Instantaneous TKE  =     30.460 (m/s)^2
   Maximum Instantaneous CTKE =     14.912 (m/s)^2


Grid Point Variance Summary:

   Y-coord -150.00 -141.43 -132.86 -124.29 -115.71 -107.14  -98.57  -90.00  -81.43  -72.86  -64.29  -55.71  -47.14  -38.57  -30.00  -21.43  -12.86   -4.29    4.29   12.86   21.43   30.00   38.57   47.14   55.71   64.29   72.86   81.43   90.00   98.57  107.14  115.71  124.29  132.86  141.43  150.00

   Height   Standard deviation at grid points for the u component:
   301.00    1.892   1.933   1.774   1.774   1.741   1.857   1.926   1.976   1.970   1.810   1.709   1.874   1.854   1.732   1.996   1.952   1.833   1.823   1.857   1.885   1.820   1.672   1.749   1.884   1.704   1.677   1.585   1.713   1.782   1.820   1.944   2.033   2.021   1.952   1.887   1.899
   292.43    2.154   2.025   1.798   1.941   1.881   1.974   1.987   2.003   1.843   1.905   1.757   1.756   1.794   1.729   1.874   1.864   1.899   1.852   1.886   1.861   1.916   1.777   1.847   1.831   1.823   1.579   1.743   1.817   1.896   1.880   1.785   1.765   1.917   1.952   1.715   1.805
   283.86    2.059   1.945   1.979   1.980   2.020   2.035   2.101   1.899   1.754   1.825   1.819   1.741   1.600   1.633   1.646   1.754   1.743   1.708   1.846   1.846   1.714   1.700   1.706   1.736   1.752   1.710   1.825   1.780   1.886   1.925   1.712   1.799   1.775   1.862   1.713   1.666
   275.29    1.935   2.014   1.895   1.842   1.909   1.957   1.980   1.841   1.836   1.804   1.648   1.419   1.479   1.542   1.545   1.624   1.672   1.688   1.909   1.711   1.726   1.739   1.849   1.847   1.755   1.732   1.867   2.011   1.847   1.829   1.863   1.897   1.740   1.729   1.808   1.714
   266.71    1.978   1.882   1.773   1.838   1.648   1.950   1.992   2.054   1.826   1.684   1.645   1.505   1.484   1.421   1.599   1.641   1.630   1.767   1.885   1.880   1.785   1.797   1.872   1.854   1.912   1.888   1.871   1.982   2.129   1.891   1.808   1.792   1.759   1.764   1.759   1.836
   258.14    1.902   1.934   1.971   1.936   1.876   1.891   2.058   2.099   1.893   1.710   1.728   1.680   1.510   1.547   1.574   1.676   1.687   1.767   1.724   1.839   1.843   1.913   1.979   1.943   1.998   2.017   1.997   2.158   2.071   1.797   1.658   1.751   1.879   1.796   1.766   1.802
   249.57    2.033   1.771   1.781   1.825   1.948   1.974   2.107   2.105   1.925   1.782   1.791   1.677   1.662   1.525   1.621   1.561   1.709   1.728   1.739   1.732   1.810   1.949   1.954   2.045   2.010   2.060   2.097   2.080   1.999   1.940   1.894   1.870   1.808   1.857   1.816   1.791
   241.00    2.045   2.036   2.014   1.961   2.129   2.105   2.102   2.113   1.998   2.000   1.878   1.791   1.748   1.615   1.698   1.789   1.843   1.788   1.906   1.889   1.893   1.964   2.064   2.120   2.083   2.142   2.176   1.965   1.919   2.000   2.068   1.859   1.834   1.832   1.741   1.790
   232.43    2.042   2.094   2.003   2.156   2.241   2.216   2.247   2.138   2.093   1.995   1.893   1.823   1.713   1.592   1.767   1.777   1.779   1.895   2.004   1.998   1.948   1.889   1.928   1.955   2.018   2.038   2.136   2.015   2.045   1.980   1.933   1.991   1.941   1.988   1.972   2.058
   223.86    2.117   2.076   2.041   2.183   2.273   2.338   2.210   2.119   1.990   1.895   1.938   1.776   1.646   1.651   1.740   1.754   1.852   2.028   1.897   1.871   1.799   1.808   1.924   1.937   1.999   1.985   2.025   2.136   2.022   2.047   2.087   2.108   2.111   2.066   2.254   2.169
   215.29    2.148   1.982   2.098   2.117   2.044   2.159   2.156   2.020   2.103   2.026   2.054   1.867   1.750   1.693   1.720   1.724   1.872   1.910   2.020   1.978   1.873   1.807   1.890   1.914   1.911   1.945   1.930   2.063   1.958   2.088   2.133   2.132   2.217   2.315   2.315   2.365
   206.71    2.055   2.141   2.229   2.178   2.092   2.154   1.976   1.896   2.037   1.971   2.052   1.906   1.671   1.943   1.728   1.677   1.756   1.877   1.881   2.011   1.940   1.930   1.973   2.012   1.904   1.981   1.956   1.992   1.985   2.061   2.015   2.222   2.215   2.130   2.147   2.294
   198.14    2.140   2.069   2.211   2.201   2.005   1.924   1.979   1.998   2.116   1.981   1.948   1.917   1.747   1.880   1.854   1.684   1.746   1.930   1.988   2.045   1.969   2.014   1.969   1.981   1.932   1.916   1.986   1.897   1.958   2.016   1.909   2.047   2.118   2.105   2.148   2.227
   189.57    1.954   2.198   2.140   2.034   1.946   1.903   1.955   2.046   2.092   2.026   2.058   1.891   1.886   1.832   1.898   1.871   1.818   2.049   2.084   2.090   1.915   1.882   1.976   1.941   1.929   1.882   2.054   1.862   1.917   1.957   2.030   2.030   2.058   2.121   2.091   2.082
   181.00    1.865   1.870   1.960   2.010   2.005   2.000   1.863   2.002   1.953   1.837   1.851   1.714   1.845   1.766   1.808   1.850   1.935   1.911   2.027   2.011   1.827   1.843   1.958   1.835   1.927   1.911   2.031   1.852   1.887   2.001   2.087   2.065   1.998   1.996   2.090   2.070
   172.43    1.987   1.769   1.847   1.919   1.838   1.963   1.954   1.864   1.901   1.787   1.764   1.622   1.689   1.785   1.785   1.970   1.874   1.874   1.924   1.957   1.951   1.717   1.912   1.898   1.883   1.912   1.924   2.031   1.955   2.117   2.074   2.047   2.145   2.110   2.114   2.150
   163.86    1.921   1.857   1.846   1.888   1.751   1.795   1.816   1.823   1.854   1.966   1.752   1.703   1.695   1.932   1.875   2.029   1.959   1.921   2.051   1.947   1.844   1.712   1.725   1.647   1.717   1.897   1.840   1.867   1.911   2.198   2.130   1.946   2.003   2.103   2.021   2.194
   155.29    1.923   1.820   1.867   1.930   1.803   1.781   1.922   1.919   2.034   1.861   1.787   1.814   1.776   1.965   2.098   2.182   2.055   2.083   1.969   1.938   1.677   1.659   1.679   1.634   1.697   1.719   1.752   1.687   1.841   1.974   2.107   2.110   2.027   2.124   2.042   2.182
   146.71    1.839   1.933   1.737   1.873   2.012   1.939   2.004   2.001   2.057   1.886   1.855   1.742   1.770   1.905   2.082   2.192   2.098   1.904   1.869   1.828   1.702   1.668   1.622   1.718   1.695   1.707   1.808   1.621   1.703   1.838   2.035   2.020   1.994   2.099   2.190   2.191
   138.14    1.829   1.836   1.771   1.919   1.880   2.118   2.075   1.905   1.987   1.962   1.909   1.784   1.757   1.749   1.877   2.105   2.089   1.853   1.885   1.834   1.736   1.646   1.733   1.694   1.779   1.733   1.816   1.748   1.878   1.849   1.958   1.951   1.954   2.142   2.047   2.093
   129.57    1.928   1.890   1.880   1.903   1.943   2.070   1.997   1.979   1.970   1.920   1.907   1.843   1.931   1.833   1.865   1.941   1.963   1.821   1.706   1.724   1.650   1.614   1.708   1.648   1.620   1.668   1.716   1.798   1.907   1.841   1.814   1.909   1.921   2.063   2.009   2.038
   121.00    1.943   1.860   1.852   1.937   2.041   2.107   1.888   1.951   1.967   1.921   1.971   1.891   1.835   1.783   1.785   1.862   1.921   1.723   1.586   1.687   1.631   1.651   1.666   1.645   1.653   1.623   1.672   1.653   1.760   1.829   1.816   1.828   1.890   1.932   1.987   2.071
   112.43    1.871   1.856   1.929   2.083   1.988   1.999   1.850   1.831   1.962   1.727   1.876   1.906   1.849   1.762   1.710   1.799   1.884   1.718   1.729   1.686   1.678   1.637   1.673   1.694   1.646   1.720   1.640   1.773   1.851   1.776   1.796   1.879   1.884   1.929   1.876   1.955
   103.86    1.810   1.799   1.914   1.956   1.782   1.747   1.620   1.699   1.749   1.742   1.868   1.779   1.750   1.787   1.778   1.812   1.805   1.846   1.749   1.764   1.648   1.732   1.688   1.655   1.605   1.715   1.722   1.756   1.834   1.815   1.936   2.000   1.880   1.839   1.806   1.948
    95.29    1.658   1.715   1.869   1.708   1.658   1.549   1.566   1.712   1.676   1.808   1.867   1.913   1.810   1.887   1.752   1.831   1.651   1.651   1.742   1.814   1.752   1.758   1.799   1.824   1.773   1.870   1.701   1.721   1.856   1.785   1.996   2.109   2.078   1.933   1.824   1.933
    86.71    1.742   1.739   1.915   1.865   1.818   1.675   1.734   1.641   1.659   1.903   1.950   1.923   1.908   1.769   1.873   1.736   1.801   1.660   1.788   1.825   1.927   1.730   1.828   1.901   1.825   1.896   1.847   1.706   1.718   1.822   1.870   2.114   2.101   1.973   1.986   1.886
    78.14    1.781   1.733   1.793   1.948   1.822   1.764   1.706   1.754   1.783   1.982   1.999   1.918   1.994   1.844   1.919   1.740   1.856   1.802   1.826   1.917   1.913   2.049   1.983   1.970   1.894   1.821   1.785   1.679   1.737   1.919   2.050   2.014   2.016   2.114   2.011   2.180
    69.57    1.984   1.799   1.853   1.971   1.836   1.729   1.624   1.634   1.730   1.958   1.991   1.832   1.812   1.870   1.775   1.772   1.856   1.677   1.721   1.947   1.917   2.130   2.115   1.979   1.831   1.788   1.705   1.677   1.715   1.873   1.933   2.107   2.025   2.177   2.183   2.105
    61.00    1.889   1.890   1.920   1.997   1.717   1.725   1.583   1.597   1.653   1.772   1.804   1.806   1.764   1.763   1.809   1.787   1.920   1.528   1.722   2.051   2.056   2.140   2.199   1.925   1.885   1.841   1.801   1.739   1.762   1.764   2.065   2.194   2.225   2.255   2.359   2.288
    52.43    1.984   1.979   1.992   1.847   1.822   1.792   1.697   1.677   1.750   1.705   1.682   1.704   1.665   1.684   1.743   1.798   1.642   1.672   1.713   1.974   2.122   2.251   2.161   1.948   1.847   1.882   1.863   1.859   1.819   1.996   2.062   2.158   2.164   2.040   2.151   2.273
    43.86    1.898   1.764   1.845   1.913   1.747   1.789   1.783   1.851   1.820   1.729   1.743   1.803   1.754   1.645   1.706   1.780   1.827   1.709   1.903   2.099   2.111   2.001   1.977   1.883   1.804   1.876   1.709   1.776   1.872   2.037   2.065   2.128   2.187   2.190   2.118   2.207
    35.29    1.903   1.763   1.807   1.742   1.654   1.744   1.863   1.827   1.814   1.579   1.969   1.835   1.856   1.767   1.715   1.635   1.701   1.708   1.910   2.070   2.033   1.902   2.053   1.980   1.992   1.797   1.672   1.780   1.787   1.818   1.975   2.134   2.203   2.142   2.177   2.188
    26.71    1.990   1.808   1.673   1.757   1.744   1.816   1.808   1.866   1.919   1.863   1.932   1.913   1.865   1.783   1.720   1.731   1.774   1.604   1.873   1.876   1.895   1.880   2.064   1.822   1.892   1.914   1.823   1.936   1.969   1.841   1.956   2.021   2.163   2.122   2.249   2.107
    18.14    1.964   1.856   1.725   1.787   1.777   1.754   1.828   1.971   1.979   1.914   1.914   1.852   1.809   1.712   1.709   1.842   1.801   1.871   1.936   1.885   1.891   1.902   1.849   1.732   1.829   1.762   1.961   2.069   2.105   1.867   1.985   2.119   2.083   2.128   2.201   2.069
     9.57    1.961   1.923   1.815   2.010   1.994   1.892   1.898   2.002   2.055   1.989   2.006   1.934   1.873   1.838   1.825   1.886   1.875   1.923   1.825   1.886   1.810   1.739   1.613   1.642   1.594   1.716   1.817   1.860   2.002   1.880   1.927   1.991   2.089   2.083   2.064   1.991
     1.00    1.913   1.827   1.919   2.034   2.004   2.084   2.162   2.092   1.932   2.004   1.940   2.019   2.036   1.814   1.826   1.872   1.923   1.891   1.930   1.904   1.839   1.708   1.669   1.731   1.793   1.767   1.903   1.902   1.857   1.928   1.991   1.971   2.012   1.977   2.022   1.887

   Height   Standard deviation at grid points for the v component:
   301.00    1.933   1.933   1.933   1.933   1.933   1.933   1.933   1.933   1.933   1.933   1.933   1.933   1.933   1.933   1.933   1.933   1.933   1.933   1.933   1.933   1.933   1.933   1.933   1.933   1.933   1.933   1.933   1.933   1.933   1.933   1.933   1.933   1.933   1.933   1.933   1.933
   292.43    1.933   1.933   1.933   1.933   1.933   1.933   1.933   1.933   1.933   1.933   1.933   1.933   1.933   1.933   1.933   1.933   1.933   1.933   1.933   1.933   1.933   1.933   1.933   1.933   1.933   1.933   1.933   1.933   1.933   1.933   1.933   1.933   1.933   1.933   1.933   1.933
   283.86    1.933   1.933   1.933   1.933   1.933   1.933   1.933   1.933   1.933   1.933   1.933   1.933   1.933   1.933   1.933   1.933   1.933   1.933   1.933   1.933   1.933   1.933   1.933   1.933   1.933   1.933   1.933   1.933   1.933   1.933   1.933   1.933   1.933   1.933   1.933   1.933
   275.29    1.933   1.933   1.933   1.933   1.933   1.933   1.933   1.933   1.933   1.933   1.933   1.933   1.933   1.933   1.933   1.933   1.933   1.933   1.933   1.933   1.933   1.933   1.933   1.933   1.933   1.933   1.933   1.933   1.933   1.933   1.933   1.933   1.933   1.933   1.933   1.933
   266.71    1.933   1.933   1.933   1.933   1.933   1.933   1.933   1.933   1.933   1.933   1.933   1.933   1.933   1.933   1.933   1.933   1.933   1.933   1.933   1.933   1.933   1.933   1.933   1.933   1.933   1.933   1.933   1.933   1.933   1.933   1.933   1.933   1.933   1.933   1.933   1.933
   258.14    1.933   1.933   1.933   1.933   1.933   1.933   1.933   1.933   1.933   1.933   1.933   1.933   1.933   1.933   1.933   1.933   1.933   1.933   1.933   1.933   1.933   1.933   1.933   1.933   1.933   1.933   1.933   1.933   1.933   1.933   1.933   1.933   1.933   1.933   1.933   1.933
   249.57    1.933   1.933   1.933   1.933   1.933   1.933   1.933   1.933   1.933   1.933   1.933   1.933   1.933   1.933   1.933   1.933   1.933   1.933   1.933   1.933   1.933   1.933   1.933   1.933   1.933   1.933   1.933   1.933   1.933   1.933   1.933   1.933   1.933   1.933   1.933   1.933
   241.00    1.933   1.933   1.933   1.933   1.933   1.933   1.933   1.933   1.933   1.933   1.933   1.933   1.933   1.933   1.933   1.933   1.933   1.933   1.933   1.933   1.933   1.933   1.933   1.933   1.933   1.933   1.933   1.933   1.933   1.933   1.933   1.933   1.933   1.933   1.933   1.933
   232.43    1.933   1.933   1.933   1.933   1.933   1.933   1.933   1.933   1.933   1.933   1.933   1.933   1.933   1.933   1.933   1.933   1.933   1.933   1.933   1.933   1.933   1.933   1.933   1.933   1.933   1.933   1.933   1.933   1.933   1.933   1.933   1.933   1.933   1.933   1.933   1.933
   223.86    1.933   1.933   1.933   1.933   1.933   1.933   1.933   1.933   1.933   1.933   1.933   1.933   1.933   1.933   1.933   1.933   1.933   1.933   1.933   1.933   1.933   1.933   1.933   1.933   1.933   1.933   1.933   1.933   1.933   1.933   1.933   1.933   1.933   1.933   1.933   1.933
   215.29    1.933   1.933   1.933   1.933   1.933   1.933   1.933   1.933   1.933   1.933   1.933   1.933   1.933   1.933   1.933   1.933   1.933   1.933   1.933   1.933   1.933   1.933   1.933   1.933   1.933   1.933   1.933   1.933   1.933   1.933   1.933   1.933   1.933   1.933   1.933   1.933
   206.71    1.933   1.933   1.933   1.933   1.933   1.933   1.933   1.933   1.933   1.933   1.933   1.933   1.933   1.933   1.933   1.933   1.933   1.933   1.933   1.933   1.933   1.933   1.933   1.933   1.933   1.933   1.933   1.933   1.933   1.933   1.933   1.933   1.933   1.933   1.933   1.933
   198.14    1.933   1.933   1.933   1.933   1.933   1.933   1.933   1.933   1.933   1.933   1.933   1.933   1.933   1.933   1.933   1.933   1.933   1.933   1.933   1.933   1.933   1.933   1.933   1.933   1.933   1.933   1.933   1.933   1.933   1.933   1.933   1.933   1.933   1.933   1.933   1.933
   189.57    1.933   1.933   1.933   1.933   1.933   1.933   1.933   1.933   1.933   1.933   1.933   1.933   1.933   1.933   1.933   1.933   1.933   1.933   1.933   1.933   1.933   1.933   1.933   1.933   1.933   1.933   1.933   1.933   1.933   1.933   1.933   1.933   1.933   1.933   1.933   1.933
   181.00    1.933   1.933   1.933   1.933   1.933   1.933   1.933   1.933   1.933   1.933   1.933   1.933   1.933   1.933   1.933   1.933   1.933   1.933   1.933   1.933   1.933   1.933   1.933   1.933   1.933   1.933   1.933   1.933   1.933   1.933   1.933   1.933   1.933   1.933   1.933   1.933
   172.43    1.933   1.933   1.933   1.933   1.933   1.933   1.933   1.933   1.933   1.933   1.933   1.933   1.933   1.933   1.933   1.933   1.933   1.933   1.933   1.933   1.933   1.933   1.933   1.933   1.933   1.933   1.933   1.933   1.933   1.933   1.933   1.933   1.933   1.933   1.933   1.933
   163.86    1.933   1.933   1.933   1.933   1.933   1.933   1.933   1.933   1.933   1.933   1.933   1.933   1.933   1.933   1.933   1.933   1.933   1.933   1.933   1.933   1.933   1.933   1.933   1.933   1.933   1.933   1.933   1.933   1.933   1.933   1.933   1.933   1.933   1.933   1.933   1.933
   155.29    1.933   1.933   1.933   1.933   1.933   1.933   1.933   1.933   1.933   1.933   1.933   1.933   1.933   1.933   1.933   1.933   1.933   1.933   1.933   1.933   1.933   1.933   1.933   1.933   1.933   1.933   1.933   1.933   1.933   1.933   1.933   1.933   1.933   1.933   1.933   1.933
   146.71    1.933   1.933   1.933   1.933   1.933   1.933   1.933   1.933   1.933   1.933   1.933   1.933   1.933   1.933   1.933   1.933   1.933   1.933   1.933   1.933   1.933   1.933   1.933   1.933   1.933   1.933   1.933   1.933   1.933   1.933   1.933   1.933   1.933   1.933   1.933   1.933
   138.14    1.933   1.933   1.933   1.933   1.933   1.933   1.933   1.933   1.933   1.933   1.933   1.933   1.933   1.933   1.933   1.933   1.933   1.933   1.933   1.933   1.933   1.933   1.933   1.933   1.933   1.933   1.933   1.933   1.933   1.933   1.933   1.933   1.933   1.933   1.933   1.933
   129.57    1.933   1.933   1.933   1.933   1.933   1.933   1.933   1.933   1.933   1.933   1.933   1.933   1.933   1.933   1.933   1.933   1.933   1.933   1.933   1.933   1.933   1.933   1.933   1.933   1.933   1.933   1.933   1.933   1.933   1.933   1.933   1.933   1.933   1.933   1.933   1.933
   121.00    1.933   1.933   1.933   1.933   1.933   1.933   1.933   1.933   1.933   1.933   1.933   1.933   1.933   1.933   1.933   1.933   1.933   1.933   1.933   1.933   1.933   1.933   1.933   1.933   1.933   1.933   1.933   1.933   1.933   1.933   1.933   1.933   1.933   1.933   1.933   1.933
   112.43    1.933   1.933   1.933   1.933   1.933   1.933   1.933   1.933   1.933   1.933   1.933   1.933   1.933   1.933   1.933   1.933   1.933   1.933   1.933   1.933   1.933   1.933   1.933   1.933   1.933   1.933   1.933   1.933   1.933   1.933   1.933   1.933   1.933   1.933   1.933   1.933
   103.86    1.933   1.933   1.933   1.933   1.933   1.933   1.933   1.933   1.933   1.933   1.933   1.933   1.933   1.933   1.933   1.933   1.933   1.933   1.933   1.933   1.933   1.933   1.933   1.933   1.933   1.933   1.933   1.933   1.933   1.933   1.933   1.933   1.933   1.933   1.933   1.933
    95.29    1.933   1.933   1.933   1.933   1.933   1.933   1.933   1.933   1.933   1.933   1.933   1.933   1.933   1.933   1.933   1.933   1.933   1.933   1.933   1.933   1.933   1.933   1.933   1.933   1.933   1.933   1.933   1.933   1.933   1.933   1.933   1.933   1.933   1.933   1.933   1.933
    86.71    1.933   1.933   1.933   1.933   1.933   1.933   1.933   1.933   1.933   1.933   1.933   1.933   1.933   1.933   1.933   1.933   1.933   1.933   1.933   1.933   1.933   1.933   1.933   1.933   1.933   1.933   1.933   1.933   1.933   1.933   1.933   1.933   1.933   1.933   1.933   1.933
    78.14    1.933   1.933   1.933   1.933   1.933   1.933   1.933   1.933   1.933   1.933   1.933   1.933   1.933   1.933   1.933   1.933   1.933   1.933   1.933   1.933   1.933   1.933   1.933   1.933   1.933   1.933   1.933   1.933   1.933   1.933   1.933   1.933   1.933   1.933   1.933   1.933
    69.57    1.933   1.933   1.933   1.933   1.933   1.933   1.933   1.933   1.933   1.933   1.933   1.933   1.933   1.933   1.933   1.933   1.933   1.933   1.933   1.933   1.933   1.933   1.933   1.933   1.933   1.933   1.933   1.933   1.933   1.933   1.933   1.933   1.933   1.933   1.933   1.933
    61.00    1.933   1.933   1.933   1.933   1.933   1.933   1.933   1.933   1.933   1.933   1.933   1.933   1.933   1.933   1.933   1.933   1.933   1.933   1.933   1.933   1.933   1.933   1.933   1.933   1.933   1.933   1.933   1.933   1.933   1.933   1.933   1.933   1.933   1.933   1.933   1.933
    52.43    1.933   1.933   1.933   1.933   1.933   1.933   1.933   1.933   1.933   1.933   1.933   1.933   1.933   1.933   1.933   1.933   1.933   1.933   1.933   1.933   1.933   1.933   1.933   1.933   1.933   1.933   1.933   1.933   1.933   1.933   1.933   1.933   1.933   1.933   1.933   1.933
    43.86    1.933   1.933   1.933   1.933   1.933   1.933   1.933   1.933   1.933   1.933   1.933   1.933   1.933   1.933   1.933   1.933   1.933   1.933   1.933   1.933   1.933   1.933   1.933   1.933   1.933   1.933   1.933   1.933   1.933   1.933   1.933   1.933   1.933   1.933   1.933   1.933
    35.29    1.933   1.933   1.933   1.933   1.933   1.933   1.933   1.933   1.933   1.933   1.933   1.933   1.933   1.933   1.933   1.933   1.933   1.933   1.933   1.933   1.933   1.933   1.933   1.933   1.933   1.933   1.933   1.933   1.933   1.933   1.933   1.933   1.933   1.933   1.933   1.933
    26.71    1.933   1.933   1.933   1.933   1.933   1.933   1.933   1.933   1.933   1.933   1.933   1.933   1.933   1.933   1.933   1.933   1.933   1.933   1.933   1.933   1.933   1.933   1.933   1.933   1.933   1.933   1.933   1.933   1.933   1.933   1.933   1.933   1.933   1.933   1.933   1.933
    18.14    1.933   1.933   1.933   1.933   1.933   1.933   1.933   1.933   1.933   1.933   1.933   1.933   1.933   1.933   1.933   1.933   1.933   1.933   1.933   1.933   1.933   1.933   1.933   1.933   1.933   1.933   1.933   1.933   1.933   1.933   1.933   1.933   1.933   1.933   1.933   1.933
     9.57    1.933   1.933   1.933   1.933   1.933   1.933   1.933   1.933   1.933   1.933   1.933   1.933   1.933   1.933   1.933   1.933   1.933   1.933   1.933   1.933   1.933   1.933   1.933   1.933   1.933   1.933   1.933   1.933   1.933   1.933   1.933   1.933   1.933   1.933   1.933   1.933
     1.00    1.933   1.933   1.933   1.933   1.933   1.933   1.933   1.933   1.933   1.933   1.933   1.933   1.933   1.933   1.933   1.933   1.933   1.933   1.933   1.933   1.933   1.933   1.933   1.933   1.933   1.933   1.933   1.933   1.933   1.933   1.933   1.933   1.933   1.933   1.933   1.933

   Height   Standard deviation at grid points for the w component:
   301.00    1.933   1.933   1.933   1.933   1.933   1.933   1.933   1.933   1.933   1.933   1.933   1.933   1.933   1.933   1.933   1.933   1.933   1.933   1.933   1.933   1.933   1.933   1.933   1.933   1.933   1.933   1.933   1.933   1.933   1.933   1.933   1.933   1.933   1.933   1.933   1.933
   292.43    1.933   1.933   1.933   1.933   1.933   1.933   1.933   1.933   1.933   1.933   1.933   1.933   1.933   1.933   1.933   1.933   1.933   1.933   1.933   1.933   1.933   1.933   1.933   1.933   1.933   1.933   1.933   1.933   1.933   1.933   1.933   1.933   1.933   1.933   1.933   1.933
   283.86    1.933   1.933   1.933   1.933   1.933   1.933   1.933   1.933   1.933   1.933   1.933   1.933   1.933   1.933   1.933   1.933   1.933   1.933   1.933   1.933   1.933   1.933   1.933   1.933   1.933   1.933   1.933   1.933   1.933   1.933   1.933   1.933   1.933   1.933   1.933   1.933
   275.29    1.933   1.933   1.933   1.933   1.933   1.933   1.933   1.933   1.933   1.933   1.933   1.933   1.933   1.933   1.933   1.933   1.933   1.933   1.933   1.933   1.933   1.933   1.933   1.933   1.933   1.933   1.933   1.933   1.933   1.933   1.933   1.933   1.933   1.933   1.933   1.933
   266.71    1.933   1.933   1.933   1.933   1.933   1.933   1.933   1.933   1.933   1.933   1.933   1.933   1.933   1.933   1.933   1.933   1.933   1.933   1.933   1.933   1.933   1.933   1.933   1.933   1.933   1.933   1.933   1.933   1.933   1.933   1.933   1.933   1.933   1.933   1.933   1.933
   258.14    1.933   1.933   1.933   1.933   1.933   1.933   1.933   1.933   1.933   1.933   1.933   1.933   1.933   1.933   1.933   1.933   1.933   1.933   1.933   1.933   1.933   1.933   1.933   1.933   1.933   1.933   1.933   1.933   1.933   1.933   1.933   1.933   1.933   1.933   1.933   1.933
   249.57    1.933   1.933   1.933   1.933   1.933   1.933   1.933   1.933   1.933   1.933   1.933   1.933   1.933   1.933   1.933   1.933   1.933   1.933   1.933   1.933   1.933   1.933   1.933   1.933   1.933   1.933   1.933   1.933   1.933   1.933   1.933   1.933   1.933   1.933   1.933   1.933
   241.00    1.933   1.933   1.933   1.933   1.933   1.933   1.933   1.933   1.933   1.933   1.933   1.933   1.933   1.933   1.933   1.933   1.933   1.933   1.933   1.933   1.933   1.933   1.933   1.933   1.933   1.933   1.933   1.933   1.933   1.933   1.933   1.933   1.933   1.933   1.933   1.933
   232.43    1.933   1.933   1.933   1.933   1.933   1.933   1.933   1.933   1.933   1.933   1.933   1.933   1.933   1.933   1.933   1.933   1.933   1.933   1.933   1.933   1.933   1.933   1.933   1.933   1.933   1.933   1.933   1.933   1.933   1.933   1.933   1.933   1.933   1.933   1.933   1.933
   223.86    1.933   1.933   1.933   1.933   1.933   1.933   1.933   1.933   1.933   1.933   1.933   1.933   1.933   1.933   1.933   1.933   1.933   1.933   1.933   1.933   1.933   1.933   1.933   1.933   1.933   1.933   1.933   1.933   1.933   1.933   1.933   1.933   1.933   1.933   1.933   1.933
   215.29    1.933   1.933   1.933   1.933   1.933   1.933   1.933   1.933   1.933   1.933   1.933   1.933   1.933   1.933   1.933   1.933   1.933   1.933   1.933   1.933   1.933   1.933   1.933   1.933   1.933   1.933   1.933   1.933   1.933   1.933   1.933   1.933   1.933   1.933   1.933   1.933
   206.71    1.933   1.933   1.933   1.933   1.933   1.933   1.933   1.933   1.933   1.933   1.933   1.933   1.933   1.933   1.933   1.933   1.933   1.933   1.933   1.933   1.933   1.933   1.933   1.933   1.933   1.933   1.933   1.933   1.933   1.933   1.933   1.933   1.933   1.933   1.933   1.933
   198.14    1.933   1.933   1.933   1.933   1.933   1.933   1.933   1.933   1.933   1.933   1.933   1.933   1.933   1.933   1.933   1.933   1.933   1.933   1.933   1.933   1.933   1.933   1.933   1.933   1.933   1.933   1.933   1.933   1.933   1.933   1.933   1.933   1.933   1.933   1.933   1.933
   189.57    1.933   1.933   1.933   1.933   1.933   1.933   1.933   1.933   1.933   1.933   1.933   1.933   1.933   1.933   1.933   1.933   1.933   1.933   1.933   1.933   1.933   1.933   1.933   1.933   1.933   1.933   1.933   1.933   1.933   1.933   1.933   1.933   1.933   1.933   1.933   1.933
   181.00    1.933   1.933   1.933   1.933   1.933   1.933   1.933   1.933   1.933   1.933   1.933   1.933   1.933   1.933   1.933   1.933   1.933   1.933   1.933   1.933   1.933   1.933   1.933   1.933   1.933   1.933   1.933   1.933   1.933   1.933   1.933   1.933   1.933   1.933   1.933   1.933
   172.43    1.933   1.933   1.933   1.933   1.933   1.933   1.933   1.933   1.933   1.933   1.933   1.933   1.933   1.933   1.933   1.933   1.933   1.933   1.933   1.933   1.933   1.933   1.933   1.933   1.933   1.933   1.933   1.933   1.933   1.933   1.933   1.933   1.933   1.933   1.933   1.933
   163.86    1.933   1.933   1.933   1.933   1.933   1.933   1.933   1.933   1.933   1.933   1.933   1.933   1.933   1.933   1.933   1.933   1.933   1.933   1.933   1.933   1.933   1.933   1.933   1.933   1.933   1.933   1.933   1.933   1.933   1.933   1.933   1.933   1.933   1.933   1.933   1.933
   155.29    1.933   1.933   1.933   1.933   1.933   1.933   1.933   1.933   1.933   1.933   1.933   1.933   1.933   1.933   1.933   1.933   1.933   1.933   1.933   1.933   1.933   1.933   1.933   1.933   1.933   1.933   1.933   1.933   1.933   1.933   1.933   1.933   1.933   1.933   1.933   1.933
   146.71    1.933   1.933   1.933   1.933   1.933   1.933   1.933   1.933   1.933   1.933   1.933   1.933   1.933   1.933   1.933   1.933   1.933   1.933   1.933   1.933   1.933   1.933   1.933   1.933   1.933   1.933   1.933   1.933   1.933   1.933   1.933   1.933   1.933   1.933   1.933   1.933
   138.14    1.933   1.933   1.933   1.933   1.933   1.933   1.933   1.933   1.933   1.933   1.933   1.933   1.933   1.933   1.933   1.933   1.933   1.933   1.933   1.933   1.933   1.933   1.933   1.933   1.933   1.933   1.933   1.933   1.933   1.933   1.933   1.933   1.933   1.933   1.933   1.933
   129.57    1.933   1.933   1.933   1.933   1.933   1.933   1.933   1.933   1.933   1.933   1.933   1.933   1.933   1.933   1.933   1.933   1.933   1.933   1.933   1.933   1.933   1.933   1.933   1.933   1.933   1.933   1.933   1.933   1.933   1.933   1.933   1.933   1.933   1.933   1.933   1.933
   121.00    1.933   1.933   1.933   1.933   1.933   1.933   1.933   1.933   1.933   1.933   1.933   1.933   1.933   1.933   1.933   1.933   1.933   1.933   1.933   1.933   1.933   1.933   1.933   1.933   1.933   1.933   1.933   1.933   1.933   1.933   1.933   1.933   1.933   1.933   1.933   1.933
   112.43    1.933   1.933   1.933   1.933   1.933   1.933   1.933   1.933   1.933   1.933   1.933   1.933   1.933   1.933   1.933   1.933   1.933   1.933   1.933   1.933   1.933   1.933   1.933   1.933   1.933   1.933   1.933   1.933   1.933   1.933   1.933   1.933   1.933   1.933   1.933   1.933
   103.86    1.933   1.933   1.933   1.933   1.933   1.933   1.933   1.933   1.933   1.933   1.933   1.933   1.933   1.933   1.933   1.933   1.933   1.933   1.933   1.933   1.933   1.933   1.933   1.933   1.933   1.933   1.933   1.933   1.933   1.933   1.933   1.933   1.933   1.933   1.933   1.933
    95.29    1.933   1.933   1.933   1.933   1.933   1.933   1.933   1.933   1.933   1.933   1.933   1.933   1.933   1.933   1.933   1.933   1.933   1.933   1.933   1.933   1.933   1.933   1.933   1.933   1.933   1.933   1.933   1.933   1.933   1.933   1.933   1.933   1.933   1.933   1.933   1.933
    86.71    1.933   1.933   1.933   1.933   1.933   1.933   1.933   1.933   1.933   1.933   1.933   1.933   1.933   1.933   1.933   1.933   1.933   1.933   1.933   1.933   1.933   1.933   1.933   1.933   1.933   1.933   1.933   1.933   1.933   1.933   1.933   1.933   1.933   1.933   1.933   1.933
    78.14    1.933   1.933   1.933   1.933   1.933   1.933   1.933   1.933   1.933   1.933   1.933   1.933   1.933   1.933   1.933   1.933   1.933   1.933   1.933   1.933   1.933   1.933   1.933   1.933   1.933   1.933   1.933   1.933   1.933   1.933   1.933   1.933   1.933   1.933   1.933   1.933
    69.57    1.933   1.933   1.933   1.933   1.933   1.933   1.933   1.933   1.933   1.933   1.933   1.933   1.933   1.933   1.933   1.933   1.933   1.933   1.933   1.933   1.933   1.933   1.933   1.933   1.933   1.933   1.933   1.933   1.933   1.933   1.933   1.933   1.933   1.933   1.933   1.933
    61.00    1.933   1.933   1.933   1.933   1.933   1.933   1.933   1.933   1.933   1.933   1.933   1.933   1.933   1.933   1.933   1.933   1.933   1.933   1.933   1.933   1.933   1.933   1.933   1.933   1.933   1.933   1.933   1.933   1.933   1.933   1.933   1.933   1.933   1.933   1.933   1.933
    52.43    1.933   1.933   1.933   1.933   1.933   1.933   1.933   1.933   1.933   1.933   1.933   1.933   1.933   1.933   1.933   1.933   1.933   1.933   1.933   1.933   1.933   1.933   1.933   1.933   1.933   1.933   1.933   1.933   1.933   1.933   1.933   1.933   1.933   1.933   1.933   1.933
    43.86    1.933   1.933   1.933   1.933   1.933   1.933   1.933   1.933   1.933   1.933   1.933   1.933   1.933   1.933   1.933   1.933   1.933   1.933   1.933   1.933   1.933   1.933   1.933   1.933   1.933   1.933   1.933   1.933   1.933   1.933   1.933   1.933   1.933   1.933   1.933   1.933
    35.29    1.933   1.933   1.933   1.933   1.933   1.933   1.933   1.933   1.933   1.933   1.933   1.933   1.933   1.933   1.933   1.933   1.933   1.933   1.933   1.933   1.933   1.933   1.933   1.933   1.933   1.933   1.933   1.933   1.933   1.933   1.933   1.933   1.933   1.933   1.933   1.933
    26.71    1.933   1.933   1.933   1.933   1.933   1.933   1.933   1.933   1.933   1.933   1.933   1.933   1.933   1.933   1.933   1.933   1.933   1.933   1.933   1.933   1.933   1.933   1.933   1.933   1.933   1.933   1.933   1.933   1.933   1.933   1.933   1.933   1.933   1.933   1.933   1.933
    18.14    1.933   1.933   1.933   1.933   1.933   1.933   1.933   1.933   1.933   1.933   1.933   1.933   1.933   1.933   1.933   1.933   1.933   1.933   1.933   1.933   1.933   1.933   1.933   1.933   1.933   1.933   1.933   1.933   1.933   1.933   1.933   1.933   1.933   1.933   1.933   1.933
     9.57    1.933   1.933   1.933   1.933   1.933   1.933   1.933   1.933   1.933   1.933   1.933   1.933   1.933   1.933   1.933   1.933   1.933   1.933   1.933   1.933   1.933   1.933   1.933   1.933   1.933   1.933   1.933   1.933   1.933   1.933   1.933   1.933   1.933   1.933   1.933   1.933
     1.00    1.933   1.933   1.933   1.933   1.933   1.933   1.933   1.933   1.933   1.933   1.933   1.933   1.933   1.933   1.933   1.933   1.933   1.933   1.933   1.933   1.933   1.933   1.933   1.933   1.933   1.933   1.933   1.933   1.933   1.933   1.933   1.933   1.933   1.933   1.933   1.933

   Mean standard deviation across all grid points:
      u component:    1.888 m/s
      v component:    1.933 m/s
      w component:    1.933 m/s


U-component (X) statistics from the interpolated hub point:

   Mean =   8.9758 m/s
   TI   =  19.5512 %


Normalizing Parameters for Binary Data (approximate statistics):

   UBar  =   8.9763 m/s
   TI(u) =  22.0189 %
   TI(v) =  21.5387 %
   TI(w) =  21.5387 %

   Height Offset =   0.0000 m
   Grid Base     =   1.0000 m

Creating a PERIODIC output file.


Processing complete.  5.9219 CPU seconds used.
