
This summary file was generated by TurbSim (v2.00.07a-bjj, 14-Jun-2016) on 03-Nov-2023 at 03:21:07.


Runtime Options:

      2301  Random seed #1
    RANLUX  Type of random number generator
         F  Output binary HH turbulence parameters?
         F  Output formatted turbulence parameters?
         F  Output AeroDyn HH files?
         F  Output AeroDyn FF files?
         T  Output BLADED FF files?
         F  Output tower data?
         F  Output formatted FF files?
         F  Output coherent turbulence time step file?
         T  Clockwise rotation when looking downwind?
 0 -  NONE  IEC turbulence models scaled to exact specified standard deviation


Turbine/Model Specifications:

        36  Vertical grid-point matrix dimension
        36  Horizontal grid-point matrix dimension
     0.100  Time step [seconds]
   660.000  Analysis time [seconds]
   660.000  Usable output time [seconds]
   151.000  Hub height [m]
   300.000  Grid height [m]
   300.000  Grid width [m]
     0.000  Vertical flow angle [degrees]
     0.000  Horizontal flow angle [degrees]


Meteorological Boundary Conditions:

    IECVKM  IEC von Karman spectral model
         1  IEC standard: IEC 61400-1 Ed. 3: 2005
         A  IEC turbulence characteristic
       NTM  IEC Normal Turbulence Model
       N/A  IEC Extreme Turbulence Model (ETM) "c" parameter [m/s]
       PL   Wind profile type
   153.000  Reference height [m]
    12.000  Reference wind speed [m/s]
       N/A  Jet height [m]
     0.200  Power law exponent
     0.030  Surface roughness length [m]


Non-IEC Meteorological Boundary Conditions:

       N/A  Site latitude [degrees]
       N/A  Gradient Richardson number
       N/A  Friction or shear velocity [m/s]
       N/A  Mixing layer depth [m]
       N/A  Mean hub u'w' Reynolds stress
       N/A  Mean hub u'v' Reynolds stress
       N/A  Mean hub v'w' Reynolds stress


Spatial Coherence Models:

       IEC  u-component coherence model
      NONE  v-component coherence model
      NONE  w-component coherence model
(   12.000, 0.353E-03)  u-component coherence parameters
                   N/A  v-component coherence parameters
                   N/A  w-component coherence parameters
       N/A  Coherence exponent


You have requested that the following file(s) be generated:

   G:\2023\OpenWECDV1.0.0_x64\BaseLIne\wind\WindL_V_12_seed_2301.wnd (AeroDyn/BLADED full-field wnd file)


Turbulence Simulation Scaling Parameter Summary:

   Turbulence model used                            =  IEC von Karman
   Turbulence characteristic                        =  A
   IEC turbulence type                              =  Normal Turbulence Model
   IEC standard                                     =  IEC 61400-1 Ed. 3: 2005
   Mean wind speed at hub height                    =   11.968 m/s
   Expected value of turbulence intensity at 15 m/s =   16.000%
   Characteristic value of standard deviation       =    2.332 m/s
   Turbulence scale                                 =   42.000 m
   Isotropic integral scale                         =  147.000 m
   Characteristic value of hub turbulence intensity =   19.486%
   Gradient Richardson number                       =    0.000

   Wind profile type                                =  Power law
   Power law exponent                               =    0.200
   Mean shear across rotor disk                     =    0.031 (m/s)/m
   Assumed rotor diameter                           =  300.000 m
   Surface roughness length                         =    0.030 m

   Nyquist frequency of turbulent wind field        =    5.000 Hz

   Number of time steps in the FFT                  =     6600
   Number of time steps output                      =     6600
   Number of points simulated                       =     1297


Mean Flow Angles:

   Vertical   =   0.0 degrees
   Horizontal =   0.0 degrees

Mean Wind Speed Profile:

   Height    Wind Speed   Horizontal Angle  Vertical Angle  U-comp (X)   V-comp (Y)   W-comp (Z)
     (m)        (m/s)         (degrees)       (degrees)       (m/s)        (m/s)        (m/s)   
   ------    ----------   ----------------  --------------  ----------   ----------   ----------
    301.0       13.74            0.00            0.00         13.74         0.00         0.00
    292.4       13.66            0.00            0.00         13.66         0.00         0.00
    283.9       13.58            0.00            0.00         13.58         0.00         0.00
    275.3       13.50            0.00            0.00         13.50         0.00         0.00
    266.7       13.41            0.00            0.00         13.41         0.00         0.00
    258.1       13.32            0.00            0.00         13.32         0.00         0.00
    249.6       13.23            0.00            0.00         13.23         0.00         0.00
    241.0       13.14            0.00            0.00         13.14         0.00         0.00
    232.4       13.05            0.00            0.00         13.05         0.00         0.00
    223.9       12.95            0.00            0.00         12.95         0.00         0.00
    215.3       12.85            0.00            0.00         12.85         0.00         0.00
    206.7       12.74            0.00            0.00         12.74         0.00         0.00
    198.1       12.64            0.00            0.00         12.64         0.00         0.00
    189.6       12.53            0.00            0.00         12.53         0.00         0.00
    181.0       12.41            0.00            0.00         12.41         0.00         0.00
    172.4       12.29            0.00            0.00         12.29         0.00         0.00
    163.9       12.17            0.00            0.00         12.17         0.00         0.00
    155.3       12.04            0.00            0.00         12.04         0.00         0.00
    151.0       11.97            0.00            0.00         11.97         0.00         0.00
    146.7       11.90            0.00            0.00         11.90         0.00         0.00
    138.1       11.76            0.00            0.00         11.76         0.00         0.00
    129.6       11.61            0.00            0.00         11.61         0.00         0.00
    121.0       11.45            0.00            0.00         11.45         0.00         0.00
    112.4       11.28            0.00            0.00         11.28         0.00         0.00
    103.9       11.11            0.00            0.00         11.11         0.00         0.00
     95.3       10.92            0.00            0.00         10.92         0.00         0.00
     86.7       10.71            0.00            0.00         10.71         0.00         0.00
     78.1       10.49            0.00            0.00         10.49         0.00         0.00
     69.6       10.25            0.00            0.00         10.25         0.00         0.00
     61.0        9.98            0.00            0.00          9.98         0.00         0.00
     52.4        9.69            0.00            0.00          9.69         0.00         0.00
     43.9        9.35            0.00            0.00          9.35         0.00         0.00
     35.3        8.95            0.00            0.00          8.95         0.00         0.00
     26.7        8.46            0.00            0.00          8.46         0.00         0.00
     18.1        7.83            0.00            0.00          7.83         0.00         0.00
      9.6        6.89            0.00            0.00          6.89         0.00         0.00
      1.0        4.39            0.00            0.00          4.39         0.00         0.00


Harvested Random Seeds after Generation of the Random Numbers:

    119307688 K 1
            0 K 2


Hub-Height Simulated Turbulence Statistical Summary:

   Type of Wind        Min (m/s)   Mean (m/s)    Max (m/s)  Sigma (m/s)       TI (%)
   ----------------    ---------   ----------    ---------  -----------       ------
   Longitudinal (u)         3.65        11.97        20.07        2.458       20.538
   Lateral (v)             -6.67         0.00         8.74        2.290       19.130
   Vertical (w)            -7.00        -0.00         7.18        2.290       19.130
   U component              3.65        11.97        20.07        2.458       20.538
   V component             -6.67         0.00         8.74        2.290       19.130
   W component             -7.00        -0.00         7.18        2.290       19.130
   Horizontal (U&V)         3.69        12.19        20.27        2.456       20.158
   Total                    3.71        12.40        20.44        2.464       19.877

                       Min Reynolds     Mean Reynolds    Max Reynolds    Correlation
   Product             Stress (m/s)^2   Stress (m/s)^2   Stress (m/s)^2  Coefficient
   ----------------    --------------   --------------   --------------  -----------
   u'w'                    -21.165             0.615            36.322         0.109
   u'v'                    -24.119             0.887            52.403         0.158
   v'w'                    -23.378            -0.131            36.222        -0.025


   Friction Velocity (Ustar)  =      0.784 m/s
   Maximum Instantaneous TKE  =     59.923 (m/s)^2
   Maximum Instantaneous CTKE =     31.903 (m/s)^2


Grid Point Variance Summary:

   Y-coord -150.00 -141.43 -132.86 -124.29 -115.71 -107.14  -98.57  -90.00  -81.43  -72.86  -64.29  -55.71  -47.14  -38.57  -30.00  -21.43  -12.86   -4.29    4.29   12.86   21.43   30.00   38.57   47.14   55.71   64.29   72.86   81.43   90.00   98.57  107.14  115.71  124.29  132.86  141.43  150.00

   Height   Standard deviation at grid points for the u component:
   301.00    2.109   2.194   2.262   2.293   2.263   2.239   2.172   2.029   2.112   2.227   2.262   2.210   2.363   2.157   2.151   2.196   2.203   2.041   2.247   2.145   2.113   2.255   2.312   2.229   2.278   2.276   2.364   2.541   2.369   2.493   2.481   2.450   2.341   2.389   2.449   2.553
   292.43    2.218   2.194   2.206   2.209   2.214   2.342   2.317   2.195   2.154   2.143   2.311   2.351   2.341   2.207   2.059   2.078   2.240   2.229   2.260   2.179   2.171   2.357   2.418   2.517   2.313   2.322   2.400   2.383   2.548   2.545   2.607   2.527   2.500   2.487   2.434   2.464
   283.86    2.227   2.156   2.208   2.076   2.207   2.255   2.315   2.245   2.256   2.172   2.187   2.183   2.170   2.300   2.288   2.074   2.250   2.331   2.260   2.392   2.249   2.305   2.441   2.452   2.341   2.422   2.486   2.416   2.531   2.597   2.435   2.568   2.588   2.518   2.385   2.429
   275.29    2.101   2.111   2.081   1.970   2.161   2.264   2.348   2.399   2.350   2.150   2.027   1.990   2.195   2.155   2.090   2.270   2.300   2.248   2.271   2.423   2.418   2.285   2.420   2.411   2.320   2.243   2.384   2.497   2.495   2.498   2.506   2.441   2.399   2.446   2.603   2.508
   266.71    2.068   2.148   2.248   1.949   2.125   2.258   2.302   2.532   2.362   2.234   2.148   2.025   2.217   2.257   2.057   2.129   2.324   2.368   2.328   2.492   2.473   2.642   2.474   2.542   2.404   2.333   2.335   2.550   2.570   2.450   2.571   2.450   2.449   2.480   2.495   2.578
   258.14    2.066   2.169   2.211   2.018   2.060   2.290   2.172   2.327   2.423   2.242   2.243   2.345   2.386   2.248   2.163   2.255   2.308   2.291   2.376   2.558   2.550   2.578   2.533   2.390   2.447   2.521   2.493   2.730   2.649   2.534   2.545   2.548   2.517   2.531   2.562   2.721
   249.57    2.047   2.140   2.079   2.015   1.997   2.130   2.103   2.143   2.218   2.334   2.272   2.240   2.498   2.439   2.396   2.413   2.349   2.263   2.444   2.539   2.512   2.560   2.618   2.586   2.618   2.522   2.588   2.672   2.664   2.635   2.723   2.648   2.512   2.606   2.636   2.788
   241.00    2.146   2.161   1.987   2.073   1.995   2.067   2.215   2.054   2.003   2.313   2.263   2.310   2.393   2.452   2.566   2.559   2.606   2.288   2.391   2.449   2.465   2.478   2.642   2.604   2.476   2.507   2.460   2.690   2.639   2.699   2.816   2.684   2.627   2.766   2.711   2.826
   232.43    2.076   2.201   2.049   1.943   1.995   2.054   2.147   2.037   2.263   2.307   2.285   2.316   2.315   2.409   2.593   2.656   2.652   2.468   2.498   2.601   2.603   2.421   2.485   2.642   2.294   2.396   2.669   2.743   2.753   2.749   2.838   2.720   2.785   2.605   2.790   2.901
   223.86    2.159   2.181   2.268   2.148   1.958   2.035   2.138   2.164   2.213   2.284   2.355   2.244   2.349   2.421   2.433   2.430   2.587   2.694   2.639   2.641   2.389   2.320   2.305   2.438   2.268   2.417   2.571   2.563   2.752   2.677   2.716   2.798   2.695   2.766   2.965   2.936
   215.29    2.141   2.170   2.144   2.030   1.992   2.020   2.076   2.147   2.258   2.346   2.385   2.424   2.587   2.481   2.579   2.605   2.672   2.743   2.752   2.564   2.564   2.504   2.376   2.389   2.328   2.390   2.516   2.370   2.663   2.603   2.530   2.684   2.849   2.854   2.940   2.784
   206.71    2.074   2.053   1.985   2.148   1.990   2.025   2.060   2.039   2.113   2.199   2.422   2.317   2.525   2.474   2.599   2.624   2.804   2.675   2.736   2.613   2.719   2.535   2.356   2.386   2.223   2.342   2.351   2.425   2.458   2.546   2.615   2.743   2.806   2.871   2.742   2.761
   198.14    2.016   2.142   2.161   2.107   2.130   2.236   2.180   2.136   2.128   2.197   2.273   2.336   2.439   2.662   2.667   2.598   2.703   2.710   2.627   2.824   2.591   2.467   2.384   2.266   2.264   2.339   2.343   2.419   2.455   2.572   2.516   2.774   2.882   2.819   2.493   2.673
   189.57    1.894   2.290   2.243   2.365   2.216   2.227   2.184   2.141   2.132   2.260   2.200   2.175   2.440   2.581   2.601   2.676   2.689   2.617   2.611   2.727   2.645   2.550   2.443   2.221   2.346   2.284   2.272   2.232   2.483   2.733   2.472   2.574   2.753   2.736   2.683   2.668
   181.00    2.237   2.334   2.245   2.170   2.386   2.297   2.212   2.264   2.392   2.461   2.372   2.171   2.283   2.331   2.508   2.573   2.468   2.527   2.510   2.674   2.468   2.457   2.319   2.283   2.311   2.193   2.218   2.215   2.407   2.651   2.692   2.534   2.639   2.701   2.709   2.440
   172.43    2.362   2.362   2.212   2.254   2.293   2.231   2.325   2.533   2.490   2.366   2.367   2.368   2.267   2.285   2.562   2.624   2.477   2.589   2.417   2.470   2.413   2.344   2.242   2.355   2.368   2.141   2.181   2.230   2.334   2.540   2.479   2.541   2.577   2.639   2.519   2.614
   163.86    2.389   2.193   2.278   2.250   2.209   2.303   2.369   2.346   2.513   2.510   2.414   2.361   2.357   2.330   2.356   2.354   2.418   2.321   2.443   2.568   2.360   2.351   2.273   2.353   2.424   2.303   2.220   2.242   2.279   2.430   2.417   2.560   2.587   2.605   2.596   2.589
   155.29    2.227   2.304   2.314   2.362   2.381   2.453   2.512   2.441   2.537   2.341   2.386   2.336   2.446   2.398   2.410   2.499   2.422   2.473   2.575   2.498   2.560   2.487   2.454   2.347   2.415   2.386   2.389   2.476   2.399   2.415   2.325   2.420   2.439   2.604   2.478   2.495
   146.71    2.171   2.311   2.441   2.432   2.280   2.341   2.461   2.448   2.386   2.365   2.472   2.489   2.408   2.367   2.559   2.551   2.506   2.455   2.379   2.490   2.464   2.299   2.303   2.434   2.542   2.488   2.511   2.486   2.477   2.393   2.401   2.362   2.538   2.458   2.417   2.441
   138.14    2.248   2.253   2.356   2.451   2.173   2.217   2.470   2.441   2.515   2.399   2.547   2.511   2.514   2.452   2.531   2.476   2.429   2.323   2.252   2.089   2.240   2.248   2.397   2.375   2.287   2.262   2.349   2.320   2.351   2.310   2.379   2.565   2.690   2.520   2.373   2.508
   129.57    2.271   2.334   2.448   2.291   2.366   2.494   2.449   2.490   2.468   2.446   2.609   2.537   2.617   2.524   2.448   2.357   2.328   2.245   2.154   2.105   2.112   2.077   2.259   2.302   2.370   2.315   2.201   2.084   2.226   2.179   2.545   2.493   2.467   2.537   2.430   2.331
   121.00    2.276   2.382   2.391   2.325   2.461   2.546   2.450   2.542   2.466   2.555   2.596   2.542   2.525   2.593   2.474   2.441   2.295   2.229   2.285   2.250   2.250   2.120   2.162   2.241   2.310   2.169   2.143   1.997   2.092   2.153   2.357   2.465   2.437   2.326   2.171   2.320
   112.43    2.280   2.271   2.391   2.450   2.401   2.609   2.336   2.640   2.617   2.571   2.533   2.528   2.553   2.565   2.486   2.500   2.460   2.313   2.256   2.233   2.167   2.096   2.307   2.357   2.350   2.113   2.128   2.204   2.136   2.200   2.341   2.376   2.258   2.311   2.165   2.212
   103.86    2.270   2.281   2.332   2.424   2.395   2.471   2.500   2.618   2.724   2.703   2.554   2.548   2.551   2.639   2.673   2.613   2.486   2.463   2.374   2.370   2.192   2.081   2.127   2.212   2.251   2.305   2.123   2.117   2.153   2.112   2.261   2.292   2.350   2.231   2.202   2.192
    95.29    2.078   2.223   2.417   2.345   2.376   2.596   2.491   2.707   2.662   2.607   2.727   2.614   2.815   2.720   2.632   2.570   2.536   2.449   2.388   2.291   2.211   2.077   1.946   2.039   2.061   2.194   2.184   2.244   2.129   2.045   2.031   2.182   2.198   2.251   2.343   2.241
    86.71    2.011   2.047   2.300   2.421   2.447   2.432   2.479   2.548   2.592   2.721   2.735   2.779   2.984   2.843   2.793   2.626   2.537   2.456   2.281   2.150   2.222   2.090   2.010   1.988   1.918   2.043   2.124   2.294   2.118   1.968   2.038   2.105   2.198   2.306   2.350   2.436
    78.14    2.177   2.326   2.341   2.327   2.325   2.483   2.458   2.517   2.571   2.638   2.737   2.888   2.863   2.863   2.725   2.676   2.589   2.468   2.359   2.189   2.245   2.266   2.257   2.055   2.018   2.146   2.084   2.238   2.201   2.072   2.098   2.069   2.186   2.211   2.239   2.397
    69.57    2.231   2.400   2.524   2.368   2.487   2.581   2.636   2.674   2.684   2.573   2.688   2.742   2.750   2.818   2.783   2.764   2.676   2.427   2.245   2.210   2.399   2.372   2.315   1.991   2.107   2.157   2.010   2.206   2.328   2.239   2.054   1.863   2.035   2.117   2.240   2.519
    61.00    2.315   2.362   2.515   2.438   2.437   2.592   2.694   2.764   2.651   2.584   2.579   2.658   2.564   2.696   2.723   2.757   2.534   2.368   2.346   2.226   2.330   2.400   2.305   2.244   2.077   2.251   2.081   2.166   2.123   2.098   2.051   1.904   2.081   2.192   2.343   2.517
    52.43    2.041   2.155   2.417   2.470   2.327   2.544   2.521   2.584   2.622   2.591   2.469   2.432   2.577   2.687   2.662   2.650   2.595   2.506   2.437   2.493   2.384   2.363   2.372   2.243   2.183   2.093   2.034   2.054   2.141   2.113   2.113   2.000   2.021   2.186   2.155   2.206
    43.86    2.041   2.010   2.377   2.335   2.286   2.384   2.522   2.459   2.440   2.453   2.468   2.404   2.432   2.489   2.629   2.708   2.603   2.614   2.489   2.435   2.489   2.441   2.358   2.205   2.203   2.001   2.080   1.991   2.027   2.074   2.047   2.011   2.001   1.939   2.120   2.069
    35.29    2.120   2.051   2.185   2.256   2.260   2.209   2.320   2.271   2.445   2.494   2.438   2.523   2.485   2.486   2.616   2.580   2.550   2.668   2.553   2.533   2.525   2.643   2.431   2.166   2.132   2.110   2.035   2.084   1.928   2.128   2.105   2.270   2.160   2.063   2.048   2.014
    26.71    2.100   2.017   1.941   2.158   2.185   2.121   2.209   2.278   2.303   2.432   2.424   2.621   2.347   2.322   2.439   2.434   2.347   2.613   2.544   2.468   2.363   2.413   2.496   2.197   2.101   1.960   2.138   2.027   1.986   2.098   2.157   2.157   2.182   2.215   2.207   2.022
    18.14    2.186   2.170   2.102   2.147   2.109   2.065   2.260   2.242   2.386   2.491   2.500   2.564   2.413   2.444   2.307   2.433   2.301   2.451   2.455   2.338   2.209   2.249   2.313   2.093   2.075   1.987   1.905   1.944   1.979   1.978   2.156   2.081   2.115   2.348   2.191   2.058
     9.57    2.218   2.209   2.192   2.355   2.303   2.273   2.234   2.303   2.306   2.478   2.456   2.429   2.459   2.485   2.259   2.255   2.252   2.205   2.256   2.245   2.165   2.076   2.111   2.168   1.891   1.872   1.921   2.023   2.128   2.137   2.037   2.029   2.171   2.228   2.169   2.002
     1.00    2.273   2.245   2.240   2.259   2.279   2.335   2.328   2.319   2.321   2.363   2.519   2.290   2.418   2.343   2.189   2.114   2.035   2.024   2.325   2.255   2.081   2.037   2.109   2.027   2.097   1.969   2.027   2.148   2.264   2.140   2.086   2.111   2.198   2.219   2.115   2.135

   Height   Standard deviation at grid points for the v component:
   301.00    2.290   2.290   2.290   2.290   2.290   2.290   2.290   2.290   2.290   2.290   2.290   2.290   2.290   2.290   2.290   2.290   2.290   2.290   2.290   2.290   2.290   2.290   2.290   2.290   2.290   2.290   2.290   2.290   2.290   2.290   2.290   2.290   2.290   2.290   2.290   2.290
   292.43    2.290   2.290   2.290   2.290   2.290   2.290   2.290   2.290   2.290   2.290   2.290   2.290   2.290   2.290   2.290   2.290   2.290   2.290   2.290   2.290   2.290   2.290   2.290   2.290   2.290   2.290   2.290   2.290   2.290   2.290   2.290   2.290   2.290   2.290   2.290   2.290
   283.86    2.290   2.290   2.290   2.290   2.290   2.290   2.290   2.290   2.290   2.290   2.290   2.290   2.290   2.290   2.290   2.290   2.290   2.290   2.290   2.290   2.290   2.290   2.290   2.290   2.290   2.290   2.290   2.290   2.290   2.290   2.290   2.290   2.290   2.290   2.290   2.290
   275.29    2.290   2.290   2.290   2.290   2.290   2.290   2.290   2.290   2.290   2.290   2.290   2.290   2.290   2.290   2.290   2.290   2.290   2.290   2.290   2.290   2.290   2.290   2.290   2.290   2.290   2.290   2.290   2.290   2.290   2.290   2.290   2.290   2.290   2.290   2.290   2.290
   266.71    2.290   2.290   2.290   2.290   2.290   2.290   2.290   2.290   2.290   2.290   2.290   2.290   2.290   2.290   2.290   2.290   2.290   2.290   2.290   2.290   2.290   2.290   2.290   2.290   2.290   2.290   2.290   2.290   2.290   2.290   2.290   2.290   2.290   2.290   2.290   2.290
   258.14    2.290   2.290   2.290   2.290   2.290   2.290   2.290   2.290   2.290   2.290   2.290   2.290   2.290   2.290   2.290   2.290   2.290   2.290   2.290   2.290   2.290   2.290   2.290   2.290   2.290   2.290   2.290   2.290   2.290   2.290   2.290   2.290   2.290   2.290   2.290   2.290
   249.57    2.290   2.290   2.290   2.290   2.290   2.290   2.290   2.290   2.290   2.290   2.290   2.290   2.290   2.290   2.290   2.290   2.290   2.290   2.290   2.290   2.290   2.290   2.290   2.290   2.290   2.290   2.290   2.290   2.290   2.290   2.290   2.290   2.290   2.290   2.290   2.290
   241.00    2.290   2.290   2.290   2.290   2.290   2.290   2.290   2.290   2.290   2.290   2.290   2.290   2.290   2.290   2.290   2.290   2.290   2.290   2.290   2.290   2.290   2.290   2.290   2.290   2.290   2.290   2.290   2.290   2.290   2.290   2.290   2.290   2.290   2.290   2.290   2.290
   232.43    2.290   2.290   2.290   2.290   2.290   2.290   2.290   2.290   2.290   2.290   2.290   2.290   2.290   2.290   2.290   2.290   2.290   2.290   2.290   2.290   2.290   2.290   2.290   2.290   2.290   2.290   2.290   2.290   2.290   2.290   2.290   2.290   2.290   2.290   2.290   2.290
   223.86    2.290   2.290   2.290   2.290   2.290   2.290   2.290   2.290   2.290   2.290   2.290   2.290   2.290   2.290   2.290   2.290   2.290   2.290   2.290   2.290   2.290   2.290   2.290   2.290   2.290   2.290   2.290   2.290   2.290   2.290   2.290   2.290   2.290   2.290   2.290   2.290
   215.29    2.290   2.290   2.290   2.290   2.290   2.290   2.290   2.290   2.290   2.290   2.290   2.290   2.290   2.290   2.290   2.290   2.290   2.290   2.290   2.290   2.290   2.290   2.290   2.290   2.290   2.290   2.290   2.290   2.290   2.290   2.290   2.290   2.290   2.290   2.290   2.290
   206.71    2.290   2.290   2.290   2.290   2.290   2.290   2.290   2.290   2.290   2.290   2.290   2.290   2.290   2.290   2.290   2.290   2.290   2.290   2.290   2.290   2.290   2.290   2.290   2.290   2.290   2.290   2.290   2.290   2.290   2.290   2.290   2.290   2.290   2.290   2.290   2.290
   198.14    2.290   2.290   2.290   2.290   2.290   2.290   2.290   2.290   2.290   2.290   2.290   2.290   2.290   2.290   2.290   2.290   2.290   2.290   2.290   2.290   2.290   2.290   2.290   2.290   2.290   2.290   2.290   2.290   2.290   2.290   2.290   2.290   2.290   2.290   2.290   2.290
   189.57    2.290   2.290   2.290   2.290   2.290   2.290   2.290   2.290   2.290   2.290   2.290   2.290   2.290   2.290   2.290   2.290   2.290   2.290   2.290   2.290   2.290   2.290   2.290   2.290   2.290   2.290   2.290   2.290   2.290   2.290   2.290   2.290   2.290   2.290   2.290   2.290
   181.00    2.290   2.290   2.290   2.290   2.290   2.290   2.290   2.290   2.290   2.290   2.290   2.290   2.290   2.290   2.290   2.290   2.290   2.290   2.290   2.290   2.290   2.290   2.290   2.290   2.290   2.290   2.290   2.290   2.290   2.290   2.290   2.290   2.290   2.290   2.290   2.290
   172.43    2.290   2.290   2.290   2.290   2.290   2.290   2.290   2.290   2.290   2.290   2.290   2.290   2.290   2.290   2.290   2.290   2.290   2.290   2.290   2.290   2.290   2.290   2.290   2.290   2.290   2.290   2.290   2.290   2.290   2.290   2.290   2.290   2.290   2.290   2.290   2.290
   163.86    2.290   2.290   2.290   2.290   2.290   2.290   2.290   2.290   2.290   2.290   2.290   2.290   2.290   2.290   2.290   2.290   2.290   2.290   2.290   2.290   2.290   2.290   2.290   2.290   2.290   2.290   2.290   2.290   2.290   2.290   2.290   2.290   2.290   2.290   2.290   2.290
   155.29    2.290   2.290   2.290   2.290   2.290   2.290   2.290   2.290   2.290   2.290   2.290   2.290   2.290   2.290   2.290   2.290   2.290   2.290   2.290   2.290   2.290   2.290   2.290   2.290   2.290   2.290   2.290   2.290   2.290   2.290   2.290   2.290   2.290   2.290   2.290   2.290
   146.71    2.290   2.290   2.290   2.290   2.290   2.290   2.290   2.290   2.290   2.290   2.290   2.290   2.290   2.290   2.290   2.290   2.290   2.290   2.290   2.290   2.290   2.290   2.290   2.290   2.290   2.290   2.290   2.290   2.290   2.290   2.290   2.290   2.290   2.290   2.290   2.290
   138.14    2.290   2.290   2.290   2.290   2.290   2.290   2.290   2.290   2.290   2.290   2.290   2.290   2.290   2.290   2.290   2.290   2.290   2.290   2.290   2.290   2.290   2.290   2.290   2.290   2.290   2.290   2.290   2.290   2.290   2.290   2.290   2.290   2.290   2.290   2.290   2.290
   129.57    2.290   2.290   2.290   2.290   2.290   2.290   2.290   2.290   2.290   2.290   2.290   2.290   2.290   2.290   2.290   2.290   2.290   2.290   2.290   2.290   2.290   2.290   2.290   2.290   2.290   2.290   2.290   2.290   2.290   2.290   2.290   2.290   2.290   2.290   2.290   2.290
   121.00    2.290   2.290   2.290   2.290   2.290   2.290   2.290   2.290   2.290   2.290   2.290   2.290   2.290   2.290   2.290   2.290   2.290   2.290   2.290   2.290   2.290   2.290   2.290   2.290   2.290   2.290   2.290   2.290   2.290   2.290   2.290   2.290   2.290   2.290   2.290   2.290
   112.43    2.290   2.290   2.290   2.290   2.290   2.290   2.290   2.290   2.290   2.290   2.290   2.290   2.290   2.290   2.290   2.290   2.290   2.290   2.290   2.290   2.290   2.290   2.290   2.290   2.290   2.290   2.290   2.290   2.290   2.290   2.290   2.290   2.290   2.290   2.290   2.290
   103.86    2.290   2.290   2.290   2.290   2.290   2.290   2.290   2.290   2.290   2.290   2.290   2.290   2.290   2.290   2.290   2.290   2.290   2.290   2.290   2.290   2.290   2.290   2.290   2.290   2.290   2.290   2.290   2.290   2.290   2.290   2.290   2.290   2.290   2.290   2.290   2.290
    95.29    2.290   2.290   2.290   2.290   2.290   2.290   2.290   2.290   2.290   2.290   2.290   2.290   2.290   2.290   2.290   2.290   2.290   2.290   2.290   2.290   2.290   2.290   2.290   2.290   2.290   2.290   2.290   2.290   2.290   2.290   2.290   2.290   2.290   2.290   2.290   2.290
    86.71    2.290   2.290   2.290   2.290   2.290   2.290   2.290   2.290   2.290   2.290   2.290   2.290   2.290   2.290   2.290   2.290   2.290   2.290   2.290   2.290   2.290   2.290   2.290   2.290   2.290   2.290   2.290   2.290   2.290   2.290   2.290   2.290   2.290   2.290   2.290   2.290
    78.14    2.290   2.290   2.290   2.290   2.290   2.290   2.290   2.290   2.290   2.290   2.290   2.290   2.290   2.290   2.290   2.290   2.290   2.290   2.290   2.290   2.290   2.290   2.290   2.290   2.290   2.290   2.290   2.290   2.290   2.290   2.290   2.290   2.290   2.290   2.290   2.290
    69.57    2.290   2.290   2.290   2.290   2.290   2.290   2.290   2.290   2.290   2.290   2.290   2.290   2.290   2.290   2.290   2.290   2.290   2.290   2.290   2.290   2.290   2.290   2.290   2.290   2.290   2.290   2.290   2.290   2.290   2.290   2.290   2.290   2.290   2.290   2.290   2.290
    61.00    2.290   2.290   2.290   2.290   2.290   2.290   2.290   2.290   2.290   2.290   2.290   2.290   2.290   2.290   2.290   2.290   2.290   2.290   2.290   2.290   2.290   2.290   2.290   2.290   2.290   2.290   2.290   2.290   2.290   2.290   2.290   2.290   2.290   2.290   2.290   2.290
    52.43    2.290   2.290   2.290   2.290   2.290   2.290   2.290   2.290   2.290   2.290   2.290   2.290   2.290   2.290   2.290   2.290   2.290   2.290   2.290   2.290   2.290   2.290   2.290   2.290   2.290   2.290   2.290   2.290   2.290   2.290   2.290   2.290   2.290   2.290   2.290   2.290
    43.86    2.290   2.290   2.290   2.290   2.290   2.290   2.290   2.290   2.290   2.290   2.290   2.290   2.290   2.290   2.290   2.290   2.290   2.290   2.290   2.290   2.290   2.290   2.290   2.290   2.290   2.290   2.290   2.290   2.290   2.290   2.290   2.290   2.290   2.290   2.290   2.290
    35.29    2.290   2.290   2.290   2.290   2.290   2.290   2.290   2.290   2.290   2.290   2.290   2.290   2.290   2.290   2.290   2.290   2.290   2.290   2.290   2.290   2.290   2.290   2.290   2.290   2.290   2.290   2.290   2.290   2.290   2.290   2.290   2.290   2.290   2.290   2.290   2.290
    26.71    2.290   2.290   2.290   2.290   2.290   2.290   2.290   2.290   2.290   2.290   2.290   2.290   2.290   2.290   2.290   2.290   2.290   2.290   2.290   2.290   2.290   2.290   2.290   2.290   2.290   2.290   2.290   2.290   2.290   2.290   2.290   2.290   2.290   2.290   2.290   2.290
    18.14    2.290   2.290   2.290   2.290   2.290   2.290   2.290   2.290   2.290   2.290   2.290   2.290   2.290   2.290   2.290   2.290   2.290   2.290   2.290   2.290   2.290   2.290   2.290   2.290   2.290   2.290   2.290   2.290   2.290   2.290   2.290   2.290   2.290   2.290   2.290   2.290
     9.57    2.290   2.290   2.290   2.290   2.290   2.290   2.290   2.290   2.290   2.290   2.290   2.290   2.290   2.290   2.290   2.290   2.290   2.290   2.290   2.290   2.290   2.290   2.290   2.290   2.290   2.290   2.290   2.290   2.290   2.290   2.290   2.290   2.290   2.290   2.290   2.290
     1.00    2.290   2.290   2.290   2.290   2.290   2.290   2.290   2.290   2.290   2.290   2.290   2.290   2.290   2.290   2.290   2.290   2.290   2.290   2.290   2.290   2.290   2.290   2.290   2.290   2.290   2.290   2.290   2.290   2.290   2.290   2.290   2.290   2.290   2.290   2.290   2.290

   Height   Standard deviation at grid points for the w component:
   301.00    2.290   2.290   2.290   2.290   2.290   2.290   2.290   2.290   2.290   2.290   2.290   2.290   2.290   2.290   2.290   2.290   2.290   2.290   2.290   2.290   2.290   2.290   2.290   2.290   2.290   2.290   2.290   2.290   2.290   2.290   2.290   2.290   2.290   2.290   2.290   2.290
   292.43    2.290   2.290   2.290   2.290   2.290   2.290   2.290   2.290   2.290   2.290   2.290   2.290   2.290   2.290   2.290   2.290   2.290   2.290   2.290   2.290   2.290   2.290   2.290   2.290   2.290   2.290   2.290   2.290   2.290   2.290   2.290   2.290   2.290   2.290   2.290   2.290
   283.86    2.290   2.290   2.290   2.290   2.290   2.290   2.290   2.290   2.290   2.290   2.290   2.290   2.290   2.290   2.290   2.290   2.290   2.290   2.290   2.290   2.290   2.290   2.290   2.290   2.290   2.290   2.290   2.290   2.290   2.290   2.290   2.290   2.290   2.290   2.290   2.290
   275.29    2.290   2.290   2.290   2.290   2.290   2.290   2.290   2.290   2.290   2.290   2.290   2.290   2.290   2.290   2.290   2.290   2.290   2.290   2.290   2.290   2.290   2.290   2.290   2.290   2.290   2.290   2.290   2.290   2.290   2.290   2.290   2.290   2.290   2.290   2.290   2.290
   266.71    2.290   2.290   2.290   2.290   2.290   2.290   2.290   2.290   2.290   2.290   2.290   2.290   2.290   2.290   2.290   2.290   2.290   2.290   2.290   2.290   2.290   2.290   2.290   2.290   2.290   2.290   2.290   2.290   2.290   2.290   2.290   2.290   2.290   2.290   2.290   2.290
   258.14    2.290   2.290   2.290   2.290   2.290   2.290   2.290   2.290   2.290   2.290   2.290   2.290   2.290   2.290   2.290   2.290   2.290   2.290   2.290   2.290   2.290   2.290   2.290   2.290   2.290   2.290   2.290   2.290   2.290   2.290   2.290   2.290   2.290   2.290   2.290   2.290
   249.57    2.290   2.290   2.290   2.290   2.290   2.290   2.290   2.290   2.290   2.290   2.290   2.290   2.290   2.290   2.290   2.290   2.290   2.290   2.290   2.290   2.290   2.290   2.290   2.290   2.290   2.290   2.290   2.290   2.290   2.290   2.290   2.290   2.290   2.290   2.290   2.290
   241.00    2.290   2.290   2.290   2.290   2.290   2.290   2.290   2.290   2.290   2.290   2.290   2.290   2.290   2.290   2.290   2.290   2.290   2.290   2.290   2.290   2.290   2.290   2.290   2.290   2.290   2.290   2.290   2.290   2.290   2.290   2.290   2.290   2.290   2.290   2.290   2.290
   232.43    2.290   2.290   2.290   2.290   2.290   2.290   2.290   2.290   2.290   2.290   2.290   2.290   2.290   2.290   2.290   2.290   2.290   2.290   2.290   2.290   2.290   2.290   2.290   2.290   2.290   2.290   2.290   2.290   2.290   2.290   2.290   2.290   2.290   2.290   2.290   2.290
   223.86    2.290   2.290   2.290   2.290   2.290   2.290   2.290   2.290   2.290   2.290   2.290   2.290   2.290   2.290   2.290   2.290   2.290   2.290   2.290   2.290   2.290   2.290   2.290   2.290   2.290   2.290   2.290   2.290   2.290   2.290   2.290   2.290   2.290   2.290   2.290   2.290
   215.29    2.290   2.290   2.290   2.290   2.290   2.290   2.290   2.290   2.290   2.290   2.290   2.290   2.290   2.290   2.290   2.290   2.290   2.290   2.290   2.290   2.290   2.290   2.290   2.290   2.290   2.290   2.290   2.290   2.290   2.290   2.290   2.290   2.290   2.290   2.290   2.290
   206.71    2.290   2.290   2.290   2.290   2.290   2.290   2.290   2.290   2.290   2.290   2.290   2.290   2.290   2.290   2.290   2.290   2.290   2.290   2.290   2.290   2.290   2.290   2.290   2.290   2.290   2.290   2.290   2.290   2.290   2.290   2.290   2.290   2.290   2.290   2.290   2.290
   198.14    2.290   2.290   2.290   2.290   2.290   2.290   2.290   2.290   2.290   2.290   2.290   2.290   2.290   2.290   2.290   2.290   2.290   2.290   2.290   2.290   2.290   2.290   2.290   2.290   2.290   2.290   2.290   2.290   2.290   2.290   2.290   2.290   2.290   2.290   2.290   2.290
   189.57    2.290   2.290   2.290   2.290   2.290   2.290   2.290   2.290   2.290   2.290   2.290   2.290   2.290   2.290   2.290   2.290   2.290   2.290   2.290   2.290   2.290   2.290   2.290   2.290   2.290   2.290   2.290   2.290   2.290   2.290   2.290   2.290   2.290   2.290   2.290   2.290
   181.00    2.290   2.290   2.290   2.290   2.290   2.290   2.290   2.290   2.290   2.290   2.290   2.290   2.290   2.290   2.290   2.290   2.290   2.290   2.290   2.290   2.290   2.290   2.290   2.290   2.290   2.290   2.290   2.290   2.290   2.290   2.290   2.290   2.290   2.290   2.290   2.290
   172.43    2.290   2.290   2.290   2.290   2.290   2.290   2.290   2.290   2.290   2.290   2.290   2.290   2.290   2.290   2.290   2.290   2.290   2.290   2.290   2.290   2.290   2.290   2.290   2.290   2.290   2.290   2.290   2.290   2.290   2.290   2.290   2.290   2.290   2.290   2.290   2.290
   163.86    2.290   2.290   2.290   2.290   2.290   2.290   2.290   2.290   2.290   2.290   2.290   2.290   2.290   2.290   2.290   2.290   2.290   2.290   2.290   2.290   2.290   2.290   2.290   2.290   2.290   2.290   2.290   2.290   2.290   2.290   2.290   2.290   2.290   2.290   2.290   2.290
   155.29    2.290   2.290   2.290   2.290   2.290   2.290   2.290   2.290   2.290   2.290   2.290   2.290   2.290   2.290   2.290   2.290   2.290   2.290   2.290   2.290   2.290   2.290   2.290   2.290   2.290   2.290   2.290   2.290   2.290   2.290   2.290   2.290   2.290   2.290   2.290   2.290
   146.71    2.290   2.290   2.290   2.290   2.290   2.290   2.290   2.290   2.290   2.290   2.290   2.290   2.290   2.290   2.290   2.290   2.290   2.290   2.290   2.290   2.290   2.290   2.290   2.290   2.290   2.290   2.290   2.290   2.290   2.290   2.290   2.290   2.290   2.290   2.290   2.290
   138.14    2.290   2.290   2.290   2.290   2.290   2.290   2.290   2.290   2.290   2.290   2.290   2.290   2.290   2.290   2.290   2.290   2.290   2.290   2.290   2.290   2.290   2.290   2.290   2.290   2.290   2.290   2.290   2.290   2.290   2.290   2.290   2.290   2.290   2.290   2.290   2.290
   129.57    2.290   2.290   2.290   2.290   2.290   2.290   2.290   2.290   2.290   2.290   2.290   2.290   2.290   2.290   2.290   2.290   2.290   2.290   2.290   2.290   2.290   2.290   2.290   2.290   2.290   2.290   2.290   2.290   2.290   2.290   2.290   2.290   2.290   2.290   2.290   2.290
   121.00    2.290   2.290   2.290   2.290   2.290   2.290   2.290   2.290   2.290   2.290   2.290   2.290   2.290   2.290   2.290   2.290   2.290   2.290   2.290   2.290   2.290   2.290   2.290   2.290   2.290   2.290   2.290   2.290   2.290   2.290   2.290   2.290   2.290   2.290   2.290   2.290
   112.43    2.290   2.290   2.290   2.290   2.290   2.290   2.290   2.290   2.290   2.290   2.290   2.290   2.290   2.290   2.290   2.290   2.290   2.290   2.290   2.290   2.290   2.290   2.290   2.290   2.290   2.290   2.290   2.290   2.290   2.290   2.290   2.290   2.290   2.290   2.290   2.290
   103.86    2.290   2.290   2.290   2.290   2.290   2.290   2.290   2.290   2.290   2.290   2.290   2.290   2.290   2.290   2.290   2.290   2.290   2.290   2.290   2.290   2.290   2.290   2.290   2.290   2.290   2.290   2.290   2.290   2.290   2.290   2.290   2.290   2.290   2.290   2.290   2.290
    95.29    2.290   2.290   2.290   2.290   2.290   2.290   2.290   2.290   2.290   2.290   2.290   2.290   2.290   2.290   2.290   2.290   2.290   2.290   2.290   2.290   2.290   2.290   2.290   2.290   2.290   2.290   2.290   2.290   2.290   2.290   2.290   2.290   2.290   2.290   2.290   2.290
    86.71    2.290   2.290   2.290   2.290   2.290   2.290   2.290   2.290   2.290   2.290   2.290   2.290   2.290   2.290   2.290   2.290   2.290   2.290   2.290   2.290   2.290   2.290   2.290   2.290   2.290   2.290   2.290   2.290   2.290   2.290   2.290   2.290   2.290   2.290   2.290   2.290
    78.14    2.290   2.290   2.290   2.290   2.290   2.290   2.290   2.290   2.290   2.290   2.290   2.290   2.290   2.290   2.290   2.290   2.290   2.290   2.290   2.290   2.290   2.290   2.290   2.290   2.290   2.290   2.290   2.290   2.290   2.290   2.290   2.290   2.290   2.290   2.290   2.290
    69.57    2.290   2.290   2.290   2.290   2.290   2.290   2.290   2.290   2.290   2.290   2.290   2.290   2.290   2.290   2.290   2.290   2.290   2.290   2.290   2.290   2.290   2.290   2.290   2.290   2.290   2.290   2.290   2.290   2.290   2.290   2.290   2.290   2.290   2.290   2.290   2.290
    61.00    2.290   2.290   2.290   2.290   2.290   2.290   2.290   2.290   2.290   2.290   2.290   2.290   2.290   2.290   2.290   2.290   2.290   2.290   2.290   2.290   2.290   2.290   2.290   2.290   2.290   2.290   2.290   2.290   2.290   2.290   2.290   2.290   2.290   2.290   2.290   2.290
    52.43    2.290   2.290   2.290   2.290   2.290   2.290   2.290   2.290   2.290   2.290   2.290   2.290   2.290   2.290   2.290   2.290   2.290   2.290   2.290   2.290   2.290   2.290   2.290   2.290   2.290   2.290   2.290   2.290   2.290   2.290   2.290   2.290   2.290   2.290   2.290   2.290
    43.86    2.290   2.290   2.290   2.290   2.290   2.290   2.290   2.290   2.290   2.290   2.290   2.290   2.290   2.290   2.290   2.290   2.290   2.290   2.290   2.290   2.290   2.290   2.290   2.290   2.290   2.290   2.290   2.290   2.290   2.290   2.290   2.290   2.290   2.290   2.290   2.290
    35.29    2.290   2.290   2.290   2.290   2.290   2.290   2.290   2.290   2.290   2.290   2.290   2.290   2.290   2.290   2.290   2.290   2.290   2.290   2.290   2.290   2.290   2.290   2.290   2.290   2.290   2.290   2.290   2.290   2.290   2.290   2.290   2.290   2.290   2.290   2.290   2.290
    26.71    2.290   2.290   2.290   2.290   2.290   2.290   2.290   2.290   2.290   2.290   2.290   2.290   2.290   2.290   2.290   2.290   2.290   2.290   2.290   2.290   2.290   2.290   2.290   2.290   2.290   2.290   2.290   2.290   2.290   2.290   2.290   2.290   2.290   2.290   2.290   2.290
    18.14    2.290   2.290   2.290   2.290   2.290   2.290   2.290   2.290   2.290   2.290   2.290   2.290   2.290   2.290   2.290   2.290   2.290   2.290   2.290   2.290   2.290   2.290   2.290   2.290   2.290   2.290   2.290   2.290   2.290   2.290   2.290   2.290   2.290   2.290   2.290   2.290
     9.57    2.290   2.290   2.290   2.290   2.290   2.290   2.290   2.290   2.290   2.290   2.290   2.290   2.290   2.290   2.290   2.290   2.290   2.290   2.290   2.290   2.290   2.290   2.290   2.290   2.290   2.290   2.290   2.290   2.290   2.290   2.290   2.290   2.290   2.290   2.290   2.290
     1.00    2.290   2.290   2.290   2.290   2.290   2.290   2.290   2.290   2.290   2.290   2.290   2.290   2.290   2.290   2.290   2.290   2.290   2.290   2.290   2.290   2.290   2.290   2.290   2.290   2.290   2.290   2.290   2.290   2.290   2.290   2.290   2.290   2.290   2.290   2.290   2.290

   Mean standard deviation across all grid points:
      u component:    2.360 m/s
      v component:    2.290 m/s
      w component:    2.290 m/s


U-component (X) statistics from the interpolated hub point:

   Mean =  11.9677 m/s
   TI   =  18.7618 %


Normalizing Parameters for Binary Data (approximate statistics):

   UBar  =  11.9685 m/s
   TI(u) =  20.5382 %
   TI(v) =  19.1297 %
   TI(w) =  19.1297 %

   Height Offset =   0.0000 m
   Grid Base     =   1.0000 m

Creating a PERIODIC output file.


Processing complete.  117.7 CPU seconds used.
