
This summary file was generated by TurbSim (v2.00.07a-bjj, 14-Jun-2016) on 03-Nov-2023 at 03:21:07.


Runtime Options:

      1801  Random seed #1
    RANLUX  Type of random number generator
         F  Output binary HH turbulence parameters?
         F  Output formatted turbulence parameters?
         F  Output AeroDyn HH files?
         F  Output AeroDyn FF files?
         T  Output BLADED FF files?
         F  Output tower data?
         F  Output formatted FF files?
         F  Output coherent turbulence time step file?
         T  Clockwise rotation when looking downwind?
 0 -  NONE  IEC turbulence models scaled to exact specified standard deviation


Turbine/Model Specifications:

        36  Vertical grid-point matrix dimension
        36  Horizontal grid-point matrix dimension
     0.100  Time step [seconds]
   660.000  Analysis time [seconds]
   660.000  Usable output time [seconds]
   151.000  Hub height [m]
   300.000  Grid height [m]
   300.000  Grid width [m]
     0.000  Vertical flow angle [degrees]
     0.000  Horizontal flow angle [degrees]


Meteorological Boundary Conditions:

    IECVKM  IEC von Karman spectral model
         1  IEC standard: IEC 61400-1 Ed. 3: 2005
         A  IEC turbulence characteristic
       NTM  IEC Normal Turbulence Model
       N/A  IEC Extreme Turbulence Model (ETM) "c" parameter [m/s]
       PL   Wind profile type
   153.000  Reference height [m]
    10.000  Reference wind speed [m/s]
       N/A  Jet height [m]
     0.200  Power law exponent
     0.030  Surface roughness length [m]


Non-IEC Meteorological Boundary Conditions:

       N/A  Site latitude [degrees]
       N/A  Gradient Richardson number
       N/A  Friction or shear velocity [m/s]
       N/A  Mixing layer depth [m]
       N/A  Mean hub u'w' Reynolds stress
       N/A  Mean hub u'v' Reynolds stress
       N/A  Mean hub v'w' Reynolds stress


Spatial Coherence Models:

       IEC  u-component coherence model
      NONE  v-component coherence model
      NONE  w-component coherence model
(   12.000, 0.353E-03)  u-component coherence parameters
                   N/A  v-component coherence parameters
                   N/A  w-component coherence parameters
       N/A  Coherence exponent


You have requested that the following file(s) be generated:

   G:\2023\OpenWECDV1.0.0_x64\BaseLIne\wind\WindL_V_10_seed_1801.wnd (AeroDyn/BLADED full-field wnd file)


Turbulence Simulation Scaling Parameter Summary:

   Turbulence model used                            =  IEC von Karman
   Turbulence characteristic                        =  A
   IEC turbulence type                              =  Normal Turbulence Model
   IEC standard                                     =  IEC 61400-1 Ed. 3: 2005
   Mean wind speed at hub height                    =    9.974 m/s
   Expected value of turbulence intensity at 15 m/s =   16.000%
   Characteristic value of standard deviation       =    2.093 m/s
   Turbulence scale                                 =   42.000 m
   Isotropic integral scale                         =  147.000 m
   Characteristic value of hub turbulence intensity =   20.984%
   Gradient Richardson number                       =    0.000

   Wind profile type                                =  Power law
   Power law exponent                               =    0.200
   Mean shear across rotor disk                     =    0.026 (m/s)/m
   Assumed rotor diameter                           =  300.000 m
   Surface roughness length                         =    0.030 m

   Nyquist frequency of turbulent wind field        =    5.000 Hz

   Number of time steps in the FFT                  =     6600
   Number of time steps output                      =     6600
   Number of points simulated                       =     1297


Mean Flow Angles:

   Vertical   =   0.0 degrees
   Horizontal =   0.0 degrees

Mean Wind Speed Profile:

   Height    Wind Speed   Horizontal Angle  Vertical Angle  U-comp (X)   V-comp (Y)   W-comp (Z)
     (m)        (m/s)         (degrees)       (degrees)       (m/s)        (m/s)        (m/s)   
   ------    ----------   ----------------  --------------  ----------   ----------   ----------
    301.0       11.45            0.00            0.00         11.45         0.00         0.00
    292.4       11.38            0.00            0.00         11.38         0.00         0.00
    283.9       11.32            0.00            0.00         11.32         0.00         0.00
    275.3       11.25            0.00            0.00         11.25         0.00         0.00
    266.7       11.18            0.00            0.00         11.18         0.00         0.00
    258.1       11.10            0.00            0.00         11.10         0.00         0.00
    249.6       11.03            0.00            0.00         11.03         0.00         0.00
    241.0       10.95            0.00            0.00         10.95         0.00         0.00
    232.4       10.87            0.00            0.00         10.87         0.00         0.00
    223.9       10.79            0.00            0.00         10.79         0.00         0.00
    215.3       10.71            0.00            0.00         10.71         0.00         0.00
    206.7       10.62            0.00            0.00         10.62         0.00         0.00
    198.1       10.53            0.00            0.00         10.53         0.00         0.00
    189.6       10.44            0.00            0.00         10.44         0.00         0.00
    181.0       10.34            0.00            0.00         10.34         0.00         0.00
    172.4       10.24            0.00            0.00         10.24         0.00         0.00
    163.9       10.14            0.00            0.00         10.14         0.00         0.00
    155.3       10.03            0.00            0.00         10.03         0.00         0.00
    151.0        9.97            0.00            0.00          9.97         0.00         0.00
    146.7        9.92            0.00            0.00          9.92         0.00         0.00
    138.1        9.80            0.00            0.00          9.80         0.00         0.00
    129.6        9.67            0.00            0.00          9.67         0.00         0.00
    121.0        9.54            0.00            0.00          9.54         0.00         0.00
    112.4        9.40            0.00            0.00          9.40         0.00         0.00
    103.9        9.25            0.00            0.00          9.25         0.00         0.00
     95.3        9.10            0.00            0.00          9.10         0.00         0.00
     86.7        8.93            0.00            0.00          8.93         0.00         0.00
     78.1        8.74            0.00            0.00          8.74         0.00         0.00
     69.6        8.54            0.00            0.00          8.54         0.00         0.00
     61.0        8.32            0.00            0.00          8.32         0.00         0.00
     52.4        8.07            0.00            0.00          8.07         0.00         0.00
     43.9        7.79            0.00            0.00          7.79         0.00         0.00
     35.3        7.46            0.00            0.00          7.46         0.00         0.00
     26.7        7.05            0.00            0.00          7.05         0.00         0.00
     18.1        6.53            0.00            0.00          6.53         0.00         0.00
      9.6        5.74            0.00            0.00          5.74         0.00         0.00
      1.0        3.66            0.00            0.00          3.66         0.00         0.00


Harvested Random Seeds after Generation of the Random Numbers:

    119307688 K 1
            0 K 2


Hub-Height Simulated Turbulence Statistical Summary:

   Type of Wind        Min (m/s)   Mean (m/s)    Max (m/s)  Sigma (m/s)       TI (%)
   ----------------    ---------   ----------    ---------  -----------       ------
   Longitudinal (u)         3.35         9.97        16.67        2.429       24.352
   Lateral (v)             -5.85        -0.00         6.37        2.052       20.578
   Vertical (w)            -5.18        -0.00         5.61        2.052       20.578
   U component              3.35         9.97        16.67        2.429       24.352
   V component             -5.85        -0.00         6.37        2.052       20.578
   W component             -5.18        -0.00         5.61        2.052       20.578
   Horizontal (U&V)         3.36        10.18        16.72        2.428       23.848
   Total                    3.68        10.41        16.80        2.351       22.590

                       Min Reynolds     Mean Reynolds    Max Reynolds    Correlation
   Product             Stress (m/s)^2   Stress (m/s)^2   Stress (m/s)^2  Coefficient
   ----------------    --------------   --------------   --------------  -----------
   u'w'                    -20.990            -0.054            25.300        -0.011
   u'v'                    -26.800             0.416            28.141         0.084
   v'w'                    -14.274             0.767            22.299         0.182


   Friction Velocity (Ustar)  =      0.232 m/s
   Maximum Instantaneous TKE  =     30.236 (m/s)^2
   Maximum Instantaneous CTKE =     16.589 (m/s)^2


Grid Point Variance Summary:

   Y-coord -150.00 -141.43 -132.86 -124.29 -115.71 -107.14  -98.57  -90.00  -81.43  -72.86  -64.29  -55.71  -47.14  -38.57  -30.00  -21.43  -12.86   -4.29    4.29   12.86   21.43   30.00   38.57   47.14   55.71   64.29   72.86   81.43   90.00   98.57  107.14  115.71  124.29  132.86  141.43  150.00

   Height   Standard deviation at grid points for the u component:
   301.00    2.017   2.002   1.942   1.943   1.917   1.861   1.730   1.712   1.718   1.969   1.977   2.020   2.104   1.990   1.858   1.958   1.933   1.946   1.938   1.840   1.819   1.775   1.840   1.982   1.976   1.943   2.122   2.241   2.130   1.988   2.091   2.152   2.064   1.961   1.918   1.931
   292.43    1.922   2.043   2.130   1.964   1.975   1.974   1.898   1.745   1.852   2.001   2.073   2.020   1.992   1.897   1.846   1.898   1.876   1.925   1.911   1.862   1.866   1.768   1.948   2.029   1.992   1.965   2.114   2.045   2.025   1.898   2.039   1.790   1.950   1.871   1.932   2.053
   283.86    2.009   1.979   2.040   1.892   1.908   1.937   1.943   1.915   1.966   1.909   2.041   2.065   1.935   1.922   1.877   1.891   1.987   2.060   1.944   1.819   1.897   1.812   1.904   1.850   2.018   2.218   2.104   2.078   2.011   1.923   2.048   1.892   1.913   1.974   1.965   1.964
   275.29    1.934   1.993   2.009   2.256   2.094   1.984   1.993   2.151   2.208   2.039   2.060   2.138   2.059   1.946   2.045   1.950   2.002   2.007   2.003   1.870   1.776   1.804   1.933   1.876   2.011   2.167   2.067   2.058   1.896   1.866   2.042   2.160   2.073   2.041   1.987   2.127
   266.71    1.869   2.046   2.091   2.069   2.226   2.248   2.100   2.171   2.264   2.203   1.974   2.069   2.128   2.136   2.367   2.199   2.129   2.079   2.073   1.840   1.908   1.837   1.968   2.048   1.961   1.961   1.918   1.902   1.880   1.889   2.064   2.201   2.075   2.069   1.991   2.093
   258.14    1.980   2.065   2.095   2.128   2.247   2.202   2.251   2.248   2.305   2.226   2.002   1.947   2.043   2.198   2.255   2.189   2.023   2.051   2.131   2.027   1.969   1.926   2.103   2.171   2.125   2.064   2.066   1.935   1.800   1.852   1.971   2.091   2.015   2.129   2.165   2.248
   249.57    2.040   1.941   2.168   2.292   2.399   2.204   2.200   2.431   2.306   2.300   2.208   2.037   2.005   2.071   2.162   2.209   2.040   2.106   2.197   2.038   2.052   2.042   2.044   1.966   2.164   2.106   2.072   1.990   1.901   1.804   1.975   1.943   2.017   2.127   2.100   2.221
   241.00    1.968   1.998   2.170   2.303   2.340   2.281   2.229   2.293   2.370   2.330   2.232   2.207   2.172   2.131   2.113   2.154   2.097   2.163   2.241   1.983   1.959   2.030   2.036   1.995   2.029   1.905   1.816   1.880   1.819   1.910   1.966   1.898   2.036   2.024   2.080   1.919
   232.43    2.125   2.279   2.170   2.162   2.204   2.219   2.283   2.396   2.312   2.372   2.263   2.227   2.088   2.077   2.164   1.897   1.986   2.186   2.226   2.165   2.160   1.984   1.981   1.985   1.936   1.859   1.820   1.856   1.829   1.948   2.056   2.108   2.048   2.059   2.035   2.025
   223.86    2.289   2.200   2.127   2.070   2.316   2.369   2.399   2.351   2.410   2.439   2.414   2.213   2.112   2.120   2.182   2.107   2.107   2.122   2.230   2.151   2.129   2.081   1.999   1.804   1.886   1.705   1.943   2.126   2.055   2.069   2.132   2.056   2.215   2.139   1.971   2.032
   215.29    2.184   2.168   2.231   2.310   2.466   2.370   2.347   2.510   2.617   2.702   2.438   2.412   2.196   2.170   2.182   2.019   2.053   2.097   2.099   1.983   1.891   2.006   1.967   1.797   1.759   1.889   1.855   1.970   2.072   2.072   2.125   2.137   2.057   1.861   1.938   1.936
   206.71    2.229   2.228   2.361   2.303   2.410   2.431   2.553   2.521   2.744   2.666   2.656   2.474   2.208   2.185   2.126   2.074   1.970   1.996   1.966   1.954   1.864   2.007   2.013   1.960   1.960   1.835   1.883   1.972   1.939   1.987   2.008   1.948   1.813   1.718   1.900   2.036
   198.14    2.266   2.355   2.409   2.382   2.372   2.382   2.516   2.452   2.585   2.558   2.539   2.303   2.050   2.177   2.181   2.123   2.043   2.110   1.949   1.939   2.077   2.194   1.994   1.935   1.862   2.011   1.839   1.882   1.894   1.917   1.945   1.904   1.773   1.526   1.738   1.958
   189.57    2.352   2.371   2.279   2.423   2.531   2.402   2.401   2.531   2.571   2.643   2.529   2.520   2.209   2.214   2.226   2.218   2.185   2.128   1.982   1.902   2.071   2.061   2.018   2.059   2.013   2.061   1.908   1.944   1.892   1.771   1.741   1.817   1.681   1.566   1.658   1.864
   181.00    2.278   2.267   2.310   2.496   2.553   2.375   2.334   2.350   2.504   2.551   2.545   2.429   2.156   2.212   2.212   2.185   2.314   2.072   1.926   1.990   1.926   1.888   1.976   2.069   2.005   1.947   1.836   1.807   1.737   1.698   1.644   1.753   1.658   1.663   1.811   1.799
   172.43    2.317   2.353   2.442   2.391   2.343   2.457   2.305   2.479   2.595   2.543   2.460   2.254   2.141   2.224   2.117   2.012   2.161   2.087   2.100   2.004   1.938   1.997   2.082   2.166   2.098   1.918   1.855   1.788   1.828   1.886   1.826   1.935   1.799   1.814   1.906   1.955
   163.86    2.400   2.398   2.402   2.492   2.450   2.627   2.476   2.525   2.500   2.539   2.528   2.229   2.190   2.196   2.097   2.175   2.134   2.178   2.029   1.933   1.967   1.977   2.115   2.181   2.032   1.772   1.922   1.885   1.835   1.904   1.935   1.806   1.876   1.915   1.900   1.945
   155.29    2.324   2.301   2.174   2.333   2.241   2.406   2.447   2.395   2.386   2.505   2.636   2.481   2.246   2.291   2.285   2.173   2.267   2.377   2.327   2.125   2.112   2.003   1.812   1.925   1.853   1.827   1.837   1.918   1.970   1.909   1.871   1.889   1.863   1.943   1.903   1.921
   146.71    2.248   2.262   2.287   2.204   2.296   2.210   2.318   2.212   2.287   2.314   2.483   2.396   2.111   2.211   2.014   2.065   2.173   2.350   2.346   2.256   2.117   2.203   1.821   1.925   1.980   1.900   1.823   1.826   1.759   1.760   1.746   1.867   1.771   1.984   1.898   1.841
   138.14    2.117   2.252   2.437   2.238   2.296   2.329   2.107   2.086   2.229   2.284   2.341   2.306   2.228   2.007   1.944   2.078   2.320   2.283   2.227   2.267   2.173   1.978   2.001   1.960   1.920   1.810   1.766   1.932   2.016   1.840   1.925   1.997   1.860   1.914   1.922   1.830
   129.57    2.107   2.285   2.229   2.274   2.229   2.261   2.061   2.015   2.087   2.224   2.264   2.186   2.114   2.054   2.077   2.178   2.310   2.280   2.255   2.279   2.189   2.177   2.111   2.078   1.973   1.830   1.892   1.948   1.927   1.928   1.965   2.034   2.142   1.926   1.877   1.867
   121.00    2.130   2.184   2.273   2.274   2.298   2.336   2.265   2.200   2.032   1.980   2.072   2.182   2.209   2.144   2.267   2.296   2.328   2.283   2.238   2.298   2.317   2.271   2.077   2.055   2.097   1.984   2.084   1.876   1.916   1.944   1.892   2.162   2.181   2.039   2.045   1.913
   112.43    1.945   2.074   2.177   2.129   2.248   2.153   2.194   2.185   1.950   1.853   1.884   2.273   2.222   2.031   2.060   2.272   2.267   2.370   2.368   2.523   2.447   2.270   2.160   2.124   2.091   2.223   2.067   1.800   1.948   1.992   1.912   2.103   2.148   1.968   2.051   1.925
   103.86    2.106   2.097   2.150   2.229   2.200   2.137   2.185   2.245   2.042   1.981   1.944   2.188   2.234   2.101   1.959   2.090   2.318   2.389   2.349   2.607   2.490   2.324   2.181   2.068   2.056   2.086   2.057   2.134   2.145   2.176   2.132   1.957   2.063   2.091   2.084   1.990
    95.29    2.110   2.230   2.259   2.261   2.258   2.112   2.163   2.176   2.210   2.046   2.110   2.086   2.227   2.201   2.107   2.153   2.250   2.393   2.486   2.454   2.407   2.267   2.203   2.113   1.902   1.993   1.978   1.995   2.042   2.048   2.074   2.055   2.159   2.053   2.138   2.137
    86.71    2.127   2.315   2.271   2.382   2.490   2.321   2.425   2.308   2.183   2.094   2.155   2.052   2.176   2.318   2.207   2.073   2.300   2.387   2.491   2.451   2.424   2.309   2.213   2.124   1.854   1.835   1.896   1.852   2.021   2.060   1.989   2.044   2.038   1.975   2.043   2.266
    78.14    2.187   2.257   2.446   2.478   2.444   2.472   2.346   2.262   2.381   2.157   2.270   2.242   2.252   2.268   2.181   2.430   2.311   2.407   2.509   2.454   2.427   2.368   2.104   2.108   1.989   1.925   1.829   1.932   1.886   1.989   2.163   2.095   2.111   1.970   2.144   2.125
    69.57    2.264   2.414   2.558   2.526   2.363   2.284   2.396   2.382   2.116   2.178   2.400   2.228   2.226   2.295   2.202   2.382   2.464   2.517   2.459   2.291   2.266   2.175   2.078   2.068   2.028   2.003   1.853   1.761   1.891   2.019   2.126   2.102   2.002   2.134   2.140   2.093
    61.00    2.421   2.379   2.301   2.232   2.231   2.377   2.452   2.133   2.229   2.196   2.267   2.113   2.025   2.134   2.136   2.201   2.408   2.427   2.322   2.023   2.163   2.234   2.161   2.114   2.049   1.917   1.785   1.748   1.787   2.002   2.114   2.098   2.153   2.082   2.119   2.092
    52.43    2.256   2.346   2.274   2.092   2.275   2.373   2.296   2.111   2.105   2.129   2.044   2.017   2.003   2.209   2.169   2.209   2.211   2.276   2.220   2.008   2.064   2.094   2.082   2.093   2.121   2.029   2.019   2.000   1.947   2.082   2.132   2.140   2.062   2.078   2.126   2.294
    43.86    2.061   2.066   2.055   2.171   2.115   2.195   2.174   2.108   1.971   1.985   1.922   2.003   2.171   2.312   2.320   2.186   2.098   2.128   2.116   1.974   1.895   1.975   2.070   2.249   2.111   2.018   1.868   1.989   2.071   2.109   2.071   2.228   2.082   2.161   2.310   2.277
    35.29    2.086   1.948   1.915   2.075   2.142   2.099   2.029   2.008   1.902   2.036   2.105   2.128   2.238   2.351   2.246   2.203   2.226   2.382   2.193   2.138   2.146   2.036   2.148   2.202   2.050   1.998   1.941   1.885   1.984   2.074   2.126   2.275   2.267   2.391   2.234   2.161
    26.71    2.034   1.923   2.148   2.217   2.215   2.157   1.995   1.874   1.985   2.174   2.049   1.965   2.145   2.327   2.103   2.268   2.198   2.266   2.256   2.210   2.097   2.078   1.992   1.953   2.174   1.910   1.888   1.757   1.971   2.004   2.156   2.260   2.097   2.301   2.235   2.333
    18.14    2.016   1.974   2.139   2.257   2.329   2.024   2.001   2.074   2.082   2.094   2.154   2.187   2.131   2.140   2.301   2.335   2.277   2.248   2.221   2.219   2.031   1.910   2.067   1.911   2.086   2.006   2.044   1.948   1.983   2.020   2.069   2.152   2.224   2.312   2.289   2.263
     9.57    2.067   2.119   2.011   2.055   2.153   2.133   2.099   2.072   2.163   2.022   2.062   2.048   2.077   2.186   2.296   2.322   2.306   2.257   2.210   2.216   2.135   1.975   2.067   1.935   1.903   2.126   2.095   2.216   2.054   2.079   2.026   2.057   2.280   2.323   2.405   2.256
     1.00    2.033   2.109   2.096   2.142   2.172   2.155   2.049   2.180   2.098   2.192   2.137   2.233   2.310   2.148   2.307   2.274   2.143   2.184   2.233   2.058   2.144   2.082   2.049   1.958   1.937   2.064   2.219   2.162   2.173   2.132   2.066   2.031   2.179   2.304   2.444   2.187

   Height   Standard deviation at grid points for the v component:
   301.00    2.052   2.052   2.052   2.052   2.052   2.052   2.052   2.052   2.052   2.052   2.052   2.052   2.052   2.052   2.052   2.052   2.052   2.052   2.052   2.052   2.052   2.052   2.052   2.052   2.052   2.052   2.052   2.052   2.052   2.052   2.052   2.052   2.052   2.052   2.052   2.052
   292.43    2.052   2.052   2.052   2.052   2.052   2.052   2.052   2.052   2.052   2.052   2.052   2.052   2.052   2.052   2.052   2.052   2.052   2.052   2.052   2.052   2.052   2.052   2.052   2.052   2.052   2.052   2.052   2.052   2.052   2.052   2.052   2.052   2.052   2.052   2.052   2.052
   283.86    2.052   2.052   2.052   2.052   2.052   2.052   2.052   2.052   2.052   2.052   2.052   2.052   2.052   2.052   2.052   2.052   2.052   2.052   2.052   2.052   2.052   2.052   2.052   2.052   2.052   2.052   2.052   2.052   2.052   2.052   2.052   2.052   2.052   2.052   2.052   2.052
   275.29    2.052   2.052   2.052   2.052   2.052   2.052   2.052   2.052   2.052   2.052   2.052   2.052   2.052   2.052   2.052   2.052   2.052   2.052   2.052   2.052   2.052   2.052   2.052   2.052   2.052   2.052   2.052   2.052   2.052   2.052   2.052   2.052   2.052   2.052   2.052   2.052
   266.71    2.052   2.052   2.052   2.052   2.052   2.052   2.052   2.052   2.052   2.052   2.052   2.052   2.052   2.052   2.052   2.052   2.052   2.052   2.052   2.052   2.052   2.052   2.052   2.052   2.052   2.052   2.052   2.052   2.052   2.052   2.052   2.052   2.052   2.052   2.052   2.052
   258.14    2.052   2.052   2.052   2.052   2.052   2.052   2.052   2.052   2.052   2.052   2.052   2.052   2.052   2.052   2.052   2.052   2.052   2.052   2.052   2.052   2.052   2.052   2.052   2.052   2.052   2.052   2.052   2.052   2.052   2.052   2.052   2.052   2.052   2.052   2.052   2.052
   249.57    2.052   2.052   2.052   2.052   2.052   2.052   2.052   2.052   2.052   2.052   2.052   2.052   2.052   2.052   2.052   2.052   2.052   2.052   2.052   2.052   2.052   2.052   2.052   2.052   2.052   2.052   2.052   2.052   2.052   2.052   2.052   2.052   2.052   2.052   2.052   2.052
   241.00    2.052   2.052   2.052   2.052   2.052   2.052   2.052   2.052   2.052   2.052   2.052   2.052   2.052   2.052   2.052   2.052   2.052   2.052   2.052   2.052   2.052   2.052   2.052   2.052   2.052   2.052   2.052   2.052   2.052   2.052   2.052   2.052   2.052   2.052   2.052   2.052
   232.43    2.052   2.052   2.052   2.052   2.052   2.052   2.052   2.052   2.052   2.052   2.052   2.052   2.052   2.052   2.052   2.052   2.052   2.052   2.052   2.052   2.052   2.052   2.052   2.052   2.052   2.052   2.052   2.052   2.052   2.052   2.052   2.052   2.052   2.052   2.052   2.052
   223.86    2.052   2.052   2.052   2.052   2.052   2.052   2.052   2.052   2.052   2.052   2.052   2.052   2.052   2.052   2.052   2.052   2.052   2.052   2.052   2.052   2.052   2.052   2.052   2.052   2.052   2.052   2.052   2.052   2.052   2.052   2.052   2.052   2.052   2.052   2.052   2.052
   215.29    2.052   2.052   2.052   2.052   2.052   2.052   2.052   2.052   2.052   2.052   2.052   2.052   2.052   2.052   2.052   2.052   2.052   2.052   2.052   2.052   2.052   2.052   2.052   2.052   2.052   2.052   2.052   2.052   2.052   2.052   2.052   2.052   2.052   2.052   2.052   2.052
   206.71    2.052   2.052   2.052   2.052   2.052   2.052   2.052   2.052   2.052   2.052   2.052   2.052   2.052   2.052   2.052   2.052   2.052   2.052   2.052   2.052   2.052   2.052   2.052   2.052   2.052   2.052   2.052   2.052   2.052   2.052   2.052   2.052   2.052   2.052   2.052   2.052
   198.14    2.052   2.052   2.052   2.052   2.052   2.052   2.052   2.052   2.052   2.052   2.052   2.052   2.052   2.052   2.052   2.052   2.052   2.052   2.052   2.052   2.052   2.052   2.052   2.052   2.052   2.052   2.052   2.052   2.052   2.052   2.052   2.052   2.052   2.052   2.052   2.052
   189.57    2.052   2.052   2.052   2.052   2.052   2.052   2.052   2.052   2.052   2.052   2.052   2.052   2.052   2.052   2.052   2.052   2.052   2.052   2.052   2.052   2.052   2.052   2.052   2.052   2.052   2.052   2.052   2.052   2.052   2.052   2.052   2.052   2.052   2.052   2.052   2.052
   181.00    2.052   2.052   2.052   2.052   2.052   2.052   2.052   2.052   2.052   2.052   2.052   2.052   2.052   2.052   2.052   2.052   2.052   2.052   2.052   2.052   2.052   2.052   2.052   2.052   2.052   2.052   2.052   2.052   2.052   2.052   2.052   2.052   2.052   2.052   2.052   2.052
   172.43    2.052   2.052   2.052   2.052   2.052   2.052   2.052   2.052   2.052   2.052   2.052   2.052   2.052   2.052   2.052   2.052   2.052   2.052   2.052   2.052   2.052   2.052   2.052   2.052   2.052   2.052   2.052   2.052   2.052   2.052   2.052   2.052   2.052   2.052   2.052   2.052
   163.86    2.052   2.052   2.052   2.052   2.052   2.052   2.052   2.052   2.052   2.052   2.052   2.052   2.052   2.052   2.052   2.052   2.052   2.052   2.052   2.052   2.052   2.052   2.052   2.052   2.052   2.052   2.052   2.052   2.052   2.052   2.052   2.052   2.052   2.052   2.052   2.052
   155.29    2.052   2.052   2.052   2.052   2.052   2.052   2.052   2.052   2.052   2.052   2.052   2.052   2.052   2.052   2.052   2.052   2.052   2.052   2.052   2.052   2.052   2.052   2.052   2.052   2.052   2.052   2.052   2.052   2.052   2.052   2.052   2.052   2.052   2.052   2.052   2.052
   146.71    2.052   2.052   2.052   2.052   2.052   2.052   2.052   2.052   2.052   2.052   2.052   2.052   2.052   2.052   2.052   2.052   2.052   2.052   2.052   2.052   2.052   2.052   2.052   2.052   2.052   2.052   2.052   2.052   2.052   2.052   2.052   2.052   2.052   2.052   2.052   2.052
   138.14    2.052   2.052   2.052   2.052   2.052   2.052   2.052   2.052   2.052   2.052   2.052   2.052   2.052   2.052   2.052   2.052   2.052   2.052   2.052   2.052   2.052   2.052   2.052   2.052   2.052   2.052   2.052   2.052   2.052   2.052   2.052   2.052   2.052   2.052   2.052   2.052
   129.57    2.052   2.052   2.052   2.052   2.052   2.052   2.052   2.052   2.052   2.052   2.052   2.052   2.052   2.052   2.052   2.052   2.052   2.052   2.052   2.052   2.052   2.052   2.052   2.052   2.052   2.052   2.052   2.052   2.052   2.052   2.052   2.052   2.052   2.052   2.052   2.052
   121.00    2.052   2.052   2.052   2.052   2.052   2.052   2.052   2.052   2.052   2.052   2.052   2.052   2.052   2.052   2.052   2.052   2.052   2.052   2.052   2.052   2.052   2.052   2.052   2.052   2.052   2.052   2.052   2.052   2.052   2.052   2.052   2.052   2.052   2.052   2.052   2.052
   112.43    2.052   2.052   2.052   2.052   2.052   2.052   2.052   2.052   2.052   2.052   2.052   2.052   2.052   2.052   2.052   2.052   2.052   2.052   2.052   2.052   2.052   2.052   2.052   2.052   2.052   2.052   2.052   2.052   2.052   2.052   2.052   2.052   2.052   2.052   2.052   2.052
   103.86    2.052   2.052   2.052   2.052   2.052   2.052   2.052   2.052   2.052   2.052   2.052   2.052   2.052   2.052   2.052   2.052   2.052   2.052   2.052   2.052   2.052   2.052   2.052   2.052   2.052   2.052   2.052   2.052   2.052   2.052   2.052   2.052   2.052   2.052   2.052   2.052
    95.29    2.052   2.052   2.052   2.052   2.052   2.052   2.052   2.052   2.052   2.052   2.052   2.052   2.052   2.052   2.052   2.052   2.052   2.052   2.052   2.052   2.052   2.052   2.052   2.052   2.052   2.052   2.052   2.052   2.052   2.052   2.052   2.052   2.052   2.052   2.052   2.052
    86.71    2.052   2.052   2.052   2.052   2.052   2.052   2.052   2.052   2.052   2.052   2.052   2.052   2.052   2.052   2.052   2.052   2.052   2.052   2.052   2.052   2.052   2.052   2.052   2.052   2.052   2.052   2.052   2.052   2.052   2.052   2.052   2.052   2.052   2.052   2.052   2.052
    78.14    2.052   2.052   2.052   2.052   2.052   2.052   2.052   2.052   2.052   2.052   2.052   2.052   2.052   2.052   2.052   2.052   2.052   2.052   2.052   2.052   2.052   2.052   2.052   2.052   2.052   2.052   2.052   2.052   2.052   2.052   2.052   2.052   2.052   2.052   2.052   2.052
    69.57    2.052   2.052   2.052   2.052   2.052   2.052   2.052   2.052   2.052   2.052   2.052   2.052   2.052   2.052   2.052   2.052   2.052   2.052   2.052   2.052   2.052   2.052   2.052   2.052   2.052   2.052   2.052   2.052   2.052   2.052   2.052   2.052   2.052   2.052   2.052   2.052
    61.00    2.052   2.052   2.052   2.052   2.052   2.052   2.052   2.052   2.052   2.052   2.052   2.052   2.052   2.052   2.052   2.052   2.052   2.052   2.052   2.052   2.052   2.052   2.052   2.052   2.052   2.052   2.052   2.052   2.052   2.052   2.052   2.052   2.052   2.052   2.052   2.052
    52.43    2.052   2.052   2.052   2.052   2.052   2.052   2.052   2.052   2.052   2.052   2.052   2.052   2.052   2.052   2.052   2.052   2.052   2.052   2.052   2.052   2.052   2.052   2.052   2.052   2.052   2.052   2.052   2.052   2.052   2.052   2.052   2.052   2.052   2.052   2.052   2.052
    43.86    2.052   2.052   2.052   2.052   2.052   2.052   2.052   2.052   2.052   2.052   2.052   2.052   2.052   2.052   2.052   2.052   2.052   2.052   2.052   2.052   2.052   2.052   2.052   2.052   2.052   2.052   2.052   2.052   2.052   2.052   2.052   2.052   2.052   2.052   2.052   2.052
    35.29    2.052   2.052   2.052   2.052   2.052   2.052   2.052   2.052   2.052   2.052   2.052   2.052   2.052   2.052   2.052   2.052   2.052   2.052   2.052   2.052   2.052   2.052   2.052   2.052   2.052   2.052   2.052   2.052   2.052   2.052   2.052   2.052   2.052   2.052   2.052   2.052
    26.71    2.052   2.052   2.052   2.052   2.052   2.052   2.052   2.052   2.052   2.052   2.052   2.052   2.052   2.052   2.052   2.052   2.052   2.052   2.052   2.052   2.052   2.052   2.052   2.052   2.052   2.052   2.052   2.052   2.052   2.052   2.052   2.052   2.052   2.052   2.052   2.052
    18.14    2.052   2.052   2.052   2.052   2.052   2.052   2.052   2.052   2.052   2.052   2.052   2.052   2.052   2.052   2.052   2.052   2.052   2.052   2.052   2.052   2.052   2.052   2.052   2.052   2.052   2.052   2.052   2.052   2.052   2.052   2.052   2.052   2.052   2.052   2.052   2.052
     9.57    2.052   2.052   2.052   2.052   2.052   2.052   2.052   2.052   2.052   2.052   2.052   2.052   2.052   2.052   2.052   2.052   2.052   2.052   2.052   2.052   2.052   2.052   2.052   2.052   2.052   2.052   2.052   2.052   2.052   2.052   2.052   2.052   2.052   2.052   2.052   2.052
     1.00    2.052   2.052   2.052   2.052   2.052   2.052   2.052   2.052   2.052   2.052   2.052   2.052   2.052   2.052   2.052   2.052   2.052   2.052   2.052   2.052   2.052   2.052   2.052   2.052   2.052   2.052   2.052   2.052   2.052   2.052   2.052   2.052   2.052   2.052   2.052   2.052

   Height   Standard deviation at grid points for the w component:
   301.00    2.052   2.052   2.052   2.052   2.052   2.052   2.052   2.052   2.052   2.052   2.052   2.052   2.052   2.052   2.052   2.052   2.052   2.052   2.052   2.052   2.052   2.052   2.052   2.052   2.052   2.052   2.052   2.052   2.052   2.052   2.052   2.052   2.052   2.052   2.052   2.052
   292.43    2.052   2.052   2.052   2.052   2.052   2.052   2.052   2.052   2.052   2.052   2.052   2.052   2.052   2.052   2.052   2.052   2.052   2.052   2.052   2.052   2.052   2.052   2.052   2.052   2.052   2.052   2.052   2.052   2.052   2.052   2.052   2.052   2.052   2.052   2.052   2.052
   283.86    2.052   2.052   2.052   2.052   2.052   2.052   2.052   2.052   2.052   2.052   2.052   2.052   2.052   2.052   2.052   2.052   2.052   2.052   2.052   2.052   2.052   2.052   2.052   2.052   2.052   2.052   2.052   2.052   2.052   2.052   2.052   2.052   2.052   2.052   2.052   2.052
   275.29    2.052   2.052   2.052   2.052   2.052   2.052   2.052   2.052   2.052   2.052   2.052   2.052   2.052   2.052   2.052   2.052   2.052   2.052   2.052   2.052   2.052   2.052   2.052   2.052   2.052   2.052   2.052   2.052   2.052   2.052   2.052   2.052   2.052   2.052   2.052   2.052
   266.71    2.052   2.052   2.052   2.052   2.052   2.052   2.052   2.052   2.052   2.052   2.052   2.052   2.052   2.052   2.052   2.052   2.052   2.052   2.052   2.052   2.052   2.052   2.052   2.052   2.052   2.052   2.052   2.052   2.052   2.052   2.052   2.052   2.052   2.052   2.052   2.052
   258.14    2.052   2.052   2.052   2.052   2.052   2.052   2.052   2.052   2.052   2.052   2.052   2.052   2.052   2.052   2.052   2.052   2.052   2.052   2.052   2.052   2.052   2.052   2.052   2.052   2.052   2.052   2.052   2.052   2.052   2.052   2.052   2.052   2.052   2.052   2.052   2.052
   249.57    2.052   2.052   2.052   2.052   2.052   2.052   2.052   2.052   2.052   2.052   2.052   2.052   2.052   2.052   2.052   2.052   2.052   2.052   2.052   2.052   2.052   2.052   2.052   2.052   2.052   2.052   2.052   2.052   2.052   2.052   2.052   2.052   2.052   2.052   2.052   2.052
   241.00    2.052   2.052   2.052   2.052   2.052   2.052   2.052   2.052   2.052   2.052   2.052   2.052   2.052   2.052   2.052   2.052   2.052   2.052   2.052   2.052   2.052   2.052   2.052   2.052   2.052   2.052   2.052   2.052   2.052   2.052   2.052   2.052   2.052   2.052   2.052   2.052
   232.43    2.052   2.052   2.052   2.052   2.052   2.052   2.052   2.052   2.052   2.052   2.052   2.052   2.052   2.052   2.052   2.052   2.052   2.052   2.052   2.052   2.052   2.052   2.052   2.052   2.052   2.052   2.052   2.052   2.052   2.052   2.052   2.052   2.052   2.052   2.052   2.052
   223.86    2.052   2.052   2.052   2.052   2.052   2.052   2.052   2.052   2.052   2.052   2.052   2.052   2.052   2.052   2.052   2.052   2.052   2.052   2.052   2.052   2.052   2.052   2.052   2.052   2.052   2.052   2.052   2.052   2.052   2.052   2.052   2.052   2.052   2.052   2.052   2.052
   215.29    2.052   2.052   2.052   2.052   2.052   2.052   2.052   2.052   2.052   2.052   2.052   2.052   2.052   2.052   2.052   2.052   2.052   2.052   2.052   2.052   2.052   2.052   2.052   2.052   2.052   2.052   2.052   2.052   2.052   2.052   2.052   2.052   2.052   2.052   2.052   2.052
   206.71    2.052   2.052   2.052   2.052   2.052   2.052   2.052   2.052   2.052   2.052   2.052   2.052   2.052   2.052   2.052   2.052   2.052   2.052   2.052   2.052   2.052   2.052   2.052   2.052   2.052   2.052   2.052   2.052   2.052   2.052   2.052   2.052   2.052   2.052   2.052   2.052
   198.14    2.052   2.052   2.052   2.052   2.052   2.052   2.052   2.052   2.052   2.052   2.052   2.052   2.052   2.052   2.052   2.052   2.052   2.052   2.052   2.052   2.052   2.052   2.052   2.052   2.052   2.052   2.052   2.052   2.052   2.052   2.052   2.052   2.052   2.052   2.052   2.052
   189.57    2.052   2.052   2.052   2.052   2.052   2.052   2.052   2.052   2.052   2.052   2.052   2.052   2.052   2.052   2.052   2.052   2.052   2.052   2.052   2.052   2.052   2.052   2.052   2.052   2.052   2.052   2.052   2.052   2.052   2.052   2.052   2.052   2.052   2.052   2.052   2.052
   181.00    2.052   2.052   2.052   2.052   2.052   2.052   2.052   2.052   2.052   2.052   2.052   2.052   2.052   2.052   2.052   2.052   2.052   2.052   2.052   2.052   2.052   2.052   2.052   2.052   2.052   2.052   2.052   2.052   2.052   2.052   2.052   2.052   2.052   2.052   2.052   2.052
   172.43    2.052   2.052   2.052   2.052   2.052   2.052   2.052   2.052   2.052   2.052   2.052   2.052   2.052   2.052   2.052   2.052   2.052   2.052   2.052   2.052   2.052   2.052   2.052   2.052   2.052   2.052   2.052   2.052   2.052   2.052   2.052   2.052   2.052   2.052   2.052   2.052
   163.86    2.052   2.052   2.052   2.052   2.052   2.052   2.052   2.052   2.052   2.052   2.052   2.052   2.052   2.052   2.052   2.052   2.052   2.052   2.052   2.052   2.052   2.052   2.052   2.052   2.052   2.052   2.052   2.052   2.052   2.052   2.052   2.052   2.052   2.052   2.052   2.052
   155.29    2.052   2.052   2.052   2.052   2.052   2.052   2.052   2.052   2.052   2.052   2.052   2.052   2.052   2.052   2.052   2.052   2.052   2.052   2.052   2.052   2.052   2.052   2.052   2.052   2.052   2.052   2.052   2.052   2.052   2.052   2.052   2.052   2.052   2.052   2.052   2.052
   146.71    2.052   2.052   2.052   2.052   2.052   2.052   2.052   2.052   2.052   2.052   2.052   2.052   2.052   2.052   2.052   2.052   2.052   2.052   2.052   2.052   2.052   2.052   2.052   2.052   2.052   2.052   2.052   2.052   2.052   2.052   2.052   2.052   2.052   2.052   2.052   2.052
   138.14    2.052   2.052   2.052   2.052   2.052   2.052   2.052   2.052   2.052   2.052   2.052   2.052   2.052   2.052   2.052   2.052   2.052   2.052   2.052   2.052   2.052   2.052   2.052   2.052   2.052   2.052   2.052   2.052   2.052   2.052   2.052   2.052   2.052   2.052   2.052   2.052
   129.57    2.052   2.052   2.052   2.052   2.052   2.052   2.052   2.052   2.052   2.052   2.052   2.052   2.052   2.052   2.052   2.052   2.052   2.052   2.052   2.052   2.052   2.052   2.052   2.052   2.052   2.052   2.052   2.052   2.052   2.052   2.052   2.052   2.052   2.052   2.052   2.052
   121.00    2.052   2.052   2.052   2.052   2.052   2.052   2.052   2.052   2.052   2.052   2.052   2.052   2.052   2.052   2.052   2.052   2.052   2.052   2.052   2.052   2.052   2.052   2.052   2.052   2.052   2.052   2.052   2.052   2.052   2.052   2.052   2.052   2.052   2.052   2.052   2.052
   112.43    2.052   2.052   2.052   2.052   2.052   2.052   2.052   2.052   2.052   2.052   2.052   2.052   2.052   2.052   2.052   2.052   2.052   2.052   2.052   2.052   2.052   2.052   2.052   2.052   2.052   2.052   2.052   2.052   2.052   2.052   2.052   2.052   2.052   2.052   2.052   2.052
   103.86    2.052   2.052   2.052   2.052   2.052   2.052   2.052   2.052   2.052   2.052   2.052   2.052   2.052   2.052   2.052   2.052   2.052   2.052   2.052   2.052   2.052   2.052   2.052   2.052   2.052   2.052   2.052   2.052   2.052   2.052   2.052   2.052   2.052   2.052   2.052   2.052
    95.29    2.052   2.052   2.052   2.052   2.052   2.052   2.052   2.052   2.052   2.052   2.052   2.052   2.052   2.052   2.052   2.052   2.052   2.052   2.052   2.052   2.052   2.052   2.052   2.052   2.052   2.052   2.052   2.052   2.052   2.052   2.052   2.052   2.052   2.052   2.052   2.052
    86.71    2.052   2.052   2.052   2.052   2.052   2.052   2.052   2.052   2.052   2.052   2.052   2.052   2.052   2.052   2.052   2.052   2.052   2.052   2.052   2.052   2.052   2.052   2.052   2.052   2.052   2.052   2.052   2.052   2.052   2.052   2.052   2.052   2.052   2.052   2.052   2.052
    78.14    2.052   2.052   2.052   2.052   2.052   2.052   2.052   2.052   2.052   2.052   2.052   2.052   2.052   2.052   2.052   2.052   2.052   2.052   2.052   2.052   2.052   2.052   2.052   2.052   2.052   2.052   2.052   2.052   2.052   2.052   2.052   2.052   2.052   2.052   2.052   2.052
    69.57    2.052   2.052   2.052   2.052   2.052   2.052   2.052   2.052   2.052   2.052   2.052   2.052   2.052   2.052   2.052   2.052   2.052   2.052   2.052   2.052   2.052   2.052   2.052   2.052   2.052   2.052   2.052   2.052   2.052   2.052   2.052   2.052   2.052   2.052   2.052   2.052
    61.00    2.052   2.052   2.052   2.052   2.052   2.052   2.052   2.052   2.052   2.052   2.052   2.052   2.052   2.052   2.052   2.052   2.052   2.052   2.052   2.052   2.052   2.052   2.052   2.052   2.052   2.052   2.052   2.052   2.052   2.052   2.052   2.052   2.052   2.052   2.052   2.052
    52.43    2.052   2.052   2.052   2.052   2.052   2.052   2.052   2.052   2.052   2.052   2.052   2.052   2.052   2.052   2.052   2.052   2.052   2.052   2.052   2.052   2.052   2.052   2.052   2.052   2.052   2.052   2.052   2.052   2.052   2.052   2.052   2.052   2.052   2.052   2.052   2.052
    43.86    2.052   2.052   2.052   2.052   2.052   2.052   2.052   2.052   2.052   2.052   2.052   2.052   2.052   2.052   2.052   2.052   2.052   2.052   2.052   2.052   2.052   2.052   2.052   2.052   2.052   2.052   2.052   2.052   2.052   2.052   2.052   2.052   2.052   2.052   2.052   2.052
    35.29    2.052   2.052   2.052   2.052   2.052   2.052   2.052   2.052   2.052   2.052   2.052   2.052   2.052   2.052   2.052   2.052   2.052   2.052   2.052   2.052   2.052   2.052   2.052   2.052   2.052   2.052   2.052   2.052   2.052   2.052   2.052   2.052   2.052   2.052   2.052   2.052
    26.71    2.052   2.052   2.052   2.052   2.052   2.052   2.052   2.052   2.052   2.052   2.052   2.052   2.052   2.052   2.052   2.052   2.052   2.052   2.052   2.052   2.052   2.052   2.052   2.052   2.052   2.052   2.052   2.052   2.052   2.052   2.052   2.052   2.052   2.052   2.052   2.052
    18.14    2.052   2.052   2.052   2.052   2.052   2.052   2.052   2.052   2.052   2.052   2.052   2.052   2.052   2.052   2.052   2.052   2.052   2.052   2.052   2.052   2.052   2.052   2.052   2.052   2.052   2.052   2.052   2.052   2.052   2.052   2.052   2.052   2.052   2.052   2.052   2.052
     9.57    2.052   2.052   2.052   2.052   2.052   2.052   2.052   2.052   2.052   2.052   2.052   2.052   2.052   2.052   2.052   2.052   2.052   2.052   2.052   2.052   2.052   2.052   2.052   2.052   2.052   2.052   2.052   2.052   2.052   2.052   2.052   2.052   2.052   2.052   2.052   2.052
     1.00    2.052   2.052   2.052   2.052   2.052   2.052   2.052   2.052   2.052   2.052   2.052   2.052   2.052   2.052   2.052   2.052   2.052   2.052   2.052   2.052   2.052   2.052   2.052   2.052   2.052   2.052   2.052   2.052   2.052   2.052   2.052   2.052   2.052   2.052   2.052   2.052

   Mean standard deviation across all grid points:
      u component:    2.111 m/s
      v component:    2.052 m/s
      w component:    2.052 m/s


U-component (X) statistics from the interpolated hub point:

   Mean =   9.9731 m/s
   TI   =  21.5578 %


Normalizing Parameters for Binary Data (approximate statistics):

   UBar  =   9.9737 m/s
   TI(u) =  24.3516 %
   TI(v) =  20.5777 %
   TI(w) =  20.5777 %

   Height Offset =   0.0000 m
   Grid Base     =   1.0000 m

Creating a PERIODIC output file.


Processing complete.  115.91 CPU seconds used.
