
This summary file was generated by TurbSim (v2.00.07a-bjj, 14-Jun-2016) on 03-Nov-2023 at 03:24:04.


Runtime Options:

      3301  Random seed #1
    RANLUX  Type of random number generator
         F  Output binary HH turbulence parameters?
         F  Output formatted turbulence parameters?
         F  Output AeroDyn HH files?
         F  Output AeroDyn FF files?
         T  Output BLADED FF files?
         F  Output tower data?
         F  Output formatted FF files?
         F  Output coherent turbulence time step file?
         T  Clockwise rotation when looking downwind?
 0 -  NONE  IEC turbulence models scaled to exact specified standard deviation


Turbine/Model Specifications:

        36  Vertical grid-point matrix dimension
        36  Horizontal grid-point matrix dimension
     0.100  Time step [seconds]
   660.000  Analysis time [seconds]
   660.000  Usable output time [seconds]
   151.000  Hub height [m]
   300.000  Grid height [m]
   300.000  Grid width [m]
     0.000  Vertical flow angle [degrees]
     0.000  Horizontal flow angle [degrees]


Meteorological Boundary Conditions:

    IECVKM  IEC von Karman spectral model
         1  IEC standard: IEC 61400-1 Ed. 3: 2005
         A  IEC turbulence characteristic
       NTM  IEC Normal Turbulence Model
       N/A  IEC Extreme Turbulence Model (ETM) "c" parameter [m/s]
       PL   Wind profile type
   153.000  Reference height [m]
    15.000  Reference wind speed [m/s]
       N/A  Jet height [m]
     0.200  Power law exponent
     0.030  Surface roughness length [m]


Non-IEC Meteorological Boundary Conditions:

       N/A  Site latitude [degrees]
       N/A  Gradient Richardson number
       N/A  Friction or shear velocity [m/s]
       N/A  Mixing layer depth [m]
       N/A  Mean hub u'w' Reynolds stress
       N/A  Mean hub u'v' Reynolds stress
       N/A  Mean hub v'w' Reynolds stress


Spatial Coherence Models:

       IEC  u-component coherence model
      NONE  v-component coherence model
      NONE  w-component coherence model
(   12.000, 0.353E-03)  u-component coherence parameters
                   N/A  v-component coherence parameters
                   N/A  w-component coherence parameters
       N/A  Coherence exponent


You have requested that the following file(s) be generated:

   G:\2023\OpenWECDV1.0.0_x64\BaseLIne\wind\WindL_V_15_seed_3301.wnd (AeroDyn/BLADED full-field wnd file)


Turbulence Simulation Scaling Parameter Summary:

   Turbulence model used                            =  IEC von Karman
   Turbulence characteristic                        =  A
   IEC turbulence type                              =  Normal Turbulence Model
   IEC standard                                     =  IEC 61400-1 Ed. 3: 2005
   Mean wind speed at hub height                    =   14.961 m/s
   Expected value of turbulence intensity at 15 m/s =   16.000%
   Characteristic value of standard deviation       =    2.691 m/s
   Turbulence scale                                 =   42.000 m
   Isotropic integral scale                         =  147.000 m
   Characteristic value of hub turbulence intensity =   17.989%
   Gradient Richardson number                       =    0.000

   Wind profile type                                =  Power law
   Power law exponent                               =    0.200
   Mean shear across rotor disk                     =    0.039 (m/s)/m
   Assumed rotor diameter                           =  300.000 m
   Surface roughness length                         =    0.030 m

   Nyquist frequency of turbulent wind field        =    5.000 Hz

   Number of time steps in the FFT                  =     6600
   Number of time steps output                      =     6600
   Number of points simulated                       =     1297


Mean Flow Angles:

   Vertical   =   0.0 degrees
   Horizontal =   0.0 degrees

Mean Wind Speed Profile:

   Height    Wind Speed   Horizontal Angle  Vertical Angle  U-comp (X)   V-comp (Y)   W-comp (Z)
     (m)        (m/s)         (degrees)       (degrees)       (m/s)        (m/s)        (m/s)   
   ------    ----------   ----------------  --------------  ----------   ----------   ----------
    301.0       17.17            0.00            0.00         17.17         0.00         0.00
    292.4       17.07            0.00            0.00         17.07         0.00         0.00
    283.9       16.97            0.00            0.00         16.97         0.00         0.00
    275.3       16.87            0.00            0.00         16.87         0.00         0.00
    266.7       16.76            0.00            0.00         16.76         0.00         0.00
    258.1       16.65            0.00            0.00         16.65         0.00         0.00
    249.6       16.54            0.00            0.00         16.54         0.00         0.00
    241.0       16.43            0.00            0.00         16.43         0.00         0.00
    232.4       16.31            0.00            0.00         16.31         0.00         0.00
    223.9       16.19            0.00            0.00         16.19         0.00         0.00
    215.3       16.06            0.00            0.00         16.06         0.00         0.00
    206.7       15.93            0.00            0.00         15.93         0.00         0.00
    198.1       15.80            0.00            0.00         15.80         0.00         0.00
    189.6       15.66            0.00            0.00         15.66         0.00         0.00
    181.0       15.51            0.00            0.00         15.51         0.00         0.00
    172.4       15.36            0.00            0.00         15.36         0.00         0.00
    163.9       15.21            0.00            0.00         15.21         0.00         0.00
    155.3       15.04            0.00            0.00         15.04         0.00         0.00
    151.0       14.96            0.00            0.00         14.96         0.00         0.00
    146.7       14.87            0.00            0.00         14.87         0.00         0.00
    138.1       14.70            0.00            0.00         14.70         0.00         0.00
    129.6       14.51            0.00            0.00         14.51         0.00         0.00
    121.0       14.31            0.00            0.00         14.31         0.00         0.00
    112.4       14.10            0.00            0.00         14.10         0.00         0.00
    103.9       13.88            0.00            0.00         13.88         0.00         0.00
     95.3       13.64            0.00            0.00         13.64         0.00         0.00
     86.7       13.39            0.00            0.00         13.39         0.00         0.00
     78.1       13.11            0.00            0.00         13.11         0.00         0.00
     69.6       12.81            0.00            0.00         12.81         0.00         0.00
     61.0       12.48            0.00            0.00         12.48         0.00         0.00
     52.4       12.11            0.00            0.00         12.11         0.00         0.00
     43.9       11.68            0.00            0.00         11.68         0.00         0.00
     35.3       11.19            0.00            0.00         11.19         0.00         0.00
     26.7       10.58            0.00            0.00         10.58         0.00         0.00
     18.1        9.79            0.00            0.00          9.79         0.00         0.00
      9.6        8.62            0.00            0.00          8.62         0.00         0.00
      1.0        5.48            0.00            0.00          5.48         0.00         0.00


Harvested Random Seeds after Generation of the Random Numbers:

    119307688 K 1
            0 K 2


Hub-Height Simulated Turbulence Statistical Summary:

   Type of Wind        Min (m/s)   Mean (m/s)    Max (m/s)  Sigma (m/s)       TI (%)
   ----------------    ---------   ----------    ---------  -----------       ------
   Longitudinal (u)         8.13        14.96        22.14        2.241       14.977
   Lateral (v)             -8.45        -0.00        11.39        2.644       17.672
   Vertical (w)           -10.24        -0.00         9.12        2.644       17.672
   U component              8.13        14.96        22.14        2.241       14.977
   V component             -8.45        -0.00        11.39        2.644       17.672
   W component            -10.24        -0.00         9.12        2.644       17.672
   Horizontal (U&V)         8.16        15.20        22.17        2.219       14.606
   Total                    8.17        15.42        22.17        2.236       14.498

                       Min Reynolds     Mean Reynolds    Max Reynolds    Correlation
   Product             Stress (m/s)^2   Stress (m/s)^2   Stress (m/s)^2  Coefficient
   ----------------    --------------   --------------   --------------  -----------
   u'w'                    -37.816            -0.236            32.701        -0.040
   u'v'                    -31.290            -1.027            24.242        -0.173
   v'w'                    -30.388             0.095            53.102         0.014


   Friction Velocity (Ustar)  =      0.486 m/s
   Maximum Instantaneous TKE  =     66.612 (m/s)^2
   Maximum Instantaneous CTKE =     28.740 (m/s)^2


Grid Point Variance Summary:

   Y-coord -150.00 -141.43 -132.86 -124.29 -115.71 -107.14  -98.57  -90.00  -81.43  -72.86  -64.29  -55.71  -47.14  -38.57  -30.00  -21.43  -12.86   -4.29    4.29   12.86   21.43   30.00   38.57   47.14   55.71   64.29   72.86   81.43   90.00   98.57  107.14  115.71  124.29  132.86  141.43  150.00

   Height   Standard deviation at grid points for the u component:
   301.00    2.493   2.534   2.726   2.804   2.525   2.421   2.499   2.544   2.442   2.512   2.630   2.844   2.682   2.516   2.675   2.793   2.970   2.886   2.792   2.818   2.807   2.827   2.814   2.693   2.652   2.794   2.840   2.728   2.741   2.538   2.490   2.541   2.404   2.486   2.394   2.265
   292.43    2.384   2.638   2.687   2.749   2.637   2.587   2.538   2.446   2.464   2.600   2.416   2.702   2.606   2.549   2.651   2.753   2.749   2.918   2.823   2.766   2.798   2.909   2.810   2.716   2.711   2.669   2.791   2.862   2.732   2.600   2.556   2.535   2.486   2.443   2.437   2.359
   283.86    2.586   2.458   2.562   2.572   2.707   2.678   2.557   2.554   2.551   2.731   2.593   2.648   2.596   2.646   2.712   2.754   2.640   2.611   2.666   2.827   2.622   2.799   2.764   2.742   2.728   2.781   2.842   2.681   2.736   2.619   2.612   2.630   2.634   2.452   2.329   2.302
   275.29    2.408   2.545   2.582   2.752   2.800   2.675   2.656   2.680   2.636   2.607   2.769   2.738   2.757   2.502   2.626   2.594   2.538   2.473   2.631   2.725   2.573   2.758   2.813   2.866   2.798   2.714   2.820   2.669   2.643   2.628   2.680   2.621   2.595   2.426   2.250   2.375
   266.71    2.440   2.431   2.539   2.652   2.640   2.598   2.675   2.650   2.565   2.729   2.664   2.663   2.439   2.499   2.530   2.450   2.548   2.666   2.657   2.601   2.647   2.591   2.753   2.868   2.823   2.743   2.800   2.672   2.715   2.574   2.695   2.683   2.656   2.485   2.444   2.386
   258.14    2.536   2.599   2.619   2.656   2.491   2.245   2.642   2.802   2.722   2.779   2.749   2.607   2.313   2.547   2.514   2.586   2.371   2.598   2.477   2.466   2.469   2.595   2.591   2.754   2.616   2.569   2.749   2.865   2.732   2.551   2.472   2.642   2.636   2.561   2.559   2.489
   249.57    2.611   2.700   2.477   2.453   2.424   2.281   2.479   2.687   2.681   2.587   2.521   2.502   2.541   2.453   2.501   2.390   2.518   2.427   2.583   2.565   2.525   2.635   2.809   2.801   2.646   2.555   2.781   2.875   2.590   2.546   2.545   2.388   2.322   2.464   2.449   2.465
   241.00    2.555   2.403   2.460   2.426   2.211   2.377   2.473   2.539   2.692   2.544   2.594   2.492   2.351   2.454   2.501   2.565   2.434   2.497   2.527   2.539   2.427   2.689   2.831   2.815   2.613   2.664   2.565   2.655   2.545   2.412   2.418   2.271   2.401   2.560   2.455   2.347
   232.43    2.404   2.515   2.375   2.479   2.383   2.309   2.389   2.350   2.616   2.520   2.357   2.424   2.311   2.552   2.619   2.610   2.457   2.611   2.540   2.462   2.471   2.783   2.725   2.612   2.576   2.531   2.471   2.622   2.482   2.477   2.417   2.378   2.400   2.550   2.460   2.440
   223.86    2.540   2.470   2.672   2.484   2.512   2.488   2.491   2.376   2.406   2.443   2.438   2.461   2.579   2.509   2.458   2.499   2.653   2.838   2.721   2.654   2.652   2.655   2.550   2.565   2.465   2.460   2.507   2.567   2.444   2.392   2.520   2.429   2.363   2.427   2.575   2.474
   215.29    2.411   2.550   2.447   2.548   2.622   2.473   2.446   2.397   2.399   2.414   2.423   2.560   2.503   2.396   2.453   2.472   2.544   2.715   2.683   2.714   2.507   2.560   2.468   2.352   2.357   2.315   2.413   2.523   2.510   2.488   2.606   2.487   2.515   2.435   2.564   2.432
   206.71    2.514   2.554   2.745   2.658   2.620   2.681   2.362   2.433   2.361   2.370   2.423   2.475   2.261   2.566   2.458   2.421   2.471   2.572   2.538   2.446   2.280   2.354   2.435   2.433   2.355   2.482   2.473   2.611   2.527   2.562   2.585   2.630   2.592   2.591   2.581   2.421
   198.14    2.530   2.655   2.576   2.568   2.623   2.788   2.559   2.468   2.361   2.408   2.489   2.432   2.665   2.500   2.541   2.555   2.439   2.406   2.431   2.472   2.274   2.186   2.341   2.343   2.452   2.523   2.645   2.547   2.468   2.385   2.545   2.610   2.652   2.595   2.583   2.408
   189.57    2.444   2.553   2.467   2.530   2.612   2.528   2.415   2.366   2.256   2.199   2.304   2.384   2.549   2.493   2.418   2.196   2.280   2.330   2.284   2.287   2.362   2.264   2.275   2.301   2.516   2.679   2.731   2.518   2.676   2.306   2.408   2.588   2.624   2.645   2.474   2.511
   181.00    2.524   2.481   2.577   2.498   2.569   2.467   2.255   2.397   2.233   2.159   2.382   2.479   2.497   2.564   2.291   2.041   2.241   2.294   2.378   2.369   2.352   2.196   2.301   2.374   2.467   2.534   2.589   2.613   2.630   2.520   2.555   2.545   2.524   2.542   2.382   2.419
   172.43    2.625   2.536   2.533   2.450   2.326   2.375   2.315   2.426   2.276   2.177   2.234   2.366   2.440   2.363   2.364   2.221   2.134   2.285   2.360   2.441   2.394   2.245   2.298   2.452   2.532   2.510   2.462   2.330   2.592   2.417   2.477   2.501   2.486   2.496   2.417   2.281
   163.86    2.607   2.570   2.528   2.446   2.492   2.302   2.294   2.347   2.346   2.313   2.270   2.295   2.269   2.206   2.238   2.265   2.255   2.226   2.356   2.238   2.345   2.315   2.375   2.355   2.628   2.663   2.575   2.454   2.462   2.405   2.383   2.260   2.311   2.359   2.432   2.435
   155.29    2.458   2.689   2.562   2.585   2.527   2.282   2.383   2.449   2.450   2.500   2.312   2.242   2.260   2.121   2.264   2.338   2.265   2.164   2.228   2.267   2.222   2.243   2.215   2.348   2.542   2.644   2.467   2.358   2.370   2.348   2.345   2.202   2.331   2.369   2.488   2.532
   146.71    2.537   2.571   2.555   2.513   2.644   2.581   2.542   2.478   2.401   2.360   2.293   2.187   2.094   2.116   2.328   2.228   2.251   2.288   2.075   2.179   2.116   2.398   2.161   2.236   2.493   2.531   2.453   2.410   2.359   2.304   2.366   2.375   2.452   2.256   2.620   2.546
   138.14    2.482   2.592   2.527   2.417   2.563   2.799   2.769   2.515   2.518   2.441   2.405   2.133   2.025   2.101   2.318   2.302   2.282   2.271   2.195   2.131   2.166   2.176   2.254   2.261   2.416   2.528   2.361   2.331   2.470   2.438   2.505   2.468   2.440   2.387   2.658   2.646
   129.57    2.538   2.471   2.366   2.416   2.490   2.772   2.617   2.486   2.567   2.556   2.429   2.252   2.267   2.175   2.407   2.328   2.345   2.313   2.299   2.192   2.350   2.385   2.233   2.475   2.517   2.510   2.521   2.438   2.585   2.490   2.555   2.734   2.574   2.661   2.596   2.785
   121.00    2.579   2.521   2.383   2.372   2.352   2.524   2.485   2.453   2.438   2.411   2.257   2.307   2.359   2.377   2.449   2.551   2.465   2.348   2.334   2.361   2.433   2.385   2.378   2.451   2.466   2.500   2.378   2.461   2.569   2.600   2.758   2.613   2.566   2.583   2.491   2.533
   112.43    2.676   2.552   2.574   2.478   2.331   2.484   2.407   2.474   2.331   2.366   2.326   2.307   2.273   2.306   2.377   2.301   2.365   2.357   2.359   2.453   2.463   2.429   2.337   2.234   2.344   2.440   2.345   2.418   2.577   2.650   2.596   2.518   2.459   2.647   2.427   2.585
   103.86    2.568   2.669   2.618   2.518   2.369   2.390   2.477   2.403   2.334   2.261   2.379   2.293   2.410   2.410   2.311   2.161   2.207   2.248   2.279   2.370   2.269   2.130   2.266   2.322   2.384   2.355   2.482   2.422   2.399   2.584   2.525   2.496   2.412   2.618   2.536   2.561
    95.29    2.481   2.536   2.533   2.547   2.361   2.307   2.287   2.225   2.293   1.989   2.204   2.249   2.373   2.280   2.445   2.286   2.251   2.434   2.378   2.371   2.442   2.201   2.307   2.459   2.476   2.461   2.513   2.544   2.439   2.454   2.601   2.458   2.588   2.629   2.545   2.580
    86.71    2.462   2.499   2.410   2.417   2.462   2.233   2.256   2.349   2.334   2.167   2.168   2.283   2.393   2.489   2.435   2.417   2.399   2.457   2.582   2.475   2.385   2.270   2.283   2.391   2.402   2.477   2.638   2.513   2.344   2.571   2.543   2.518   2.556   2.644   2.740   2.725
    78.14    2.501   2.565   2.580   2.494   2.338   2.449   2.154   2.363   2.264   2.400   2.234   2.253   2.424   2.480   2.517   2.573   2.514   2.460   2.411   2.501   2.306   2.191   2.267   2.396   2.390   2.585   2.524   2.446   2.533   2.791   2.775   2.746   2.704   2.856   2.790   2.747
    69.57    2.405   2.394   2.497   2.370   2.276   2.241   2.221   2.335   2.286   2.413   2.300   2.284   2.337   2.389   2.510   2.472   2.399   2.369   2.448   2.420   2.448   2.418   2.384   2.546   2.435   2.506   2.424   2.457   2.653   2.721   2.693   2.714   2.720   2.788   2.730   2.688
    61.00    2.466   2.430   2.411   2.383   2.302   2.217   2.100   2.288   2.352   2.475   2.616   2.398   2.314   2.535   2.502   2.464   2.419   2.451   2.422   2.345   2.402   2.567   2.476   2.611   2.547   2.452   2.367   2.429   2.599   2.713   2.772   2.667   2.771   2.711   2.698   2.556
    52.43    2.466   2.418   2.464   2.403   2.325   2.225   2.208   2.243   2.223   2.371   2.422   2.509   2.491   2.376   2.437   2.621   2.427   2.393   2.405   2.386   2.369   2.381   2.462   2.556   2.541   2.363   2.493   2.556   2.692   2.821   2.842   2.761   2.780   2.787   2.672   2.358
    43.86    2.430   2.458   2.558   2.461   2.366   2.360   2.197   2.305   2.185   2.300   2.481   2.526   2.461   2.450   2.574   2.576   2.562   2.445   2.458   2.454   2.469   2.350   2.327   2.391   2.482   2.395   2.628   2.592   2.716   2.867   2.823   2.909   2.830   2.671   2.743   2.506
    35.29    2.688   2.590   2.509   2.482   2.457   2.315   2.238   2.269   2.275   2.363   2.487   2.409   2.361   2.475   2.645   2.562   2.473   2.385   2.681   2.598   2.523   2.464   2.316   2.296   2.380   2.424   2.681   2.617   2.763   2.716   2.711   2.774   2.712   2.615   2.750   2.517
    26.71    2.634   2.700   2.692   2.466   2.330   2.403   2.406   2.519   2.425   2.336   2.497   2.609   2.477   2.482   2.583   2.717   2.663   2.536   2.612   2.629   2.450   2.464   2.302   2.311   2.337   2.627   2.761   2.674   2.777   2.766   2.726   2.788   2.563   2.361   2.374   2.489
    18.14    2.600   2.716   2.735   2.555   2.591   2.662   2.626   2.687   2.529   2.413   2.499   2.723   2.636   2.562   2.480   2.615   2.749   2.515   2.556   2.521   2.341   2.376   2.432   2.456   2.485   2.646   2.647   2.726   2.653   2.524   2.691   2.678   2.676   2.398   2.196   2.230
     9.57    2.583   2.622   2.746   2.570   2.680   2.682   2.741   2.640   2.747   2.587   2.691   2.826   2.773   2.613   2.744   2.675   2.705   2.560   2.548   2.354   2.338   2.410   2.620   2.695   2.451   2.593   2.678   2.691   2.658   2.602   2.701   2.678   2.504   2.406   2.199   2.214
     1.00    2.631   2.639   2.708   2.734   2.711   2.605   2.771   2.637   2.679   2.583   2.702   2.740   2.797   2.762   2.785   2.603   2.558   2.633   2.569   2.327   2.498   2.329   2.583   2.579   2.442   2.495   2.567   2.477   2.521   2.651   2.675   2.674   2.501   2.478   2.239   2.340

   Height   Standard deviation at grid points for the v component:
   301.00    2.644   2.644   2.644   2.644   2.644   2.644   2.644   2.644   2.644   2.644   2.644   2.644   2.644   2.644   2.644   2.644   2.644   2.644   2.644   2.644   2.644   2.644   2.644   2.644   2.644   2.644   2.644   2.644   2.644   2.644   2.644   2.644   2.644   2.644   2.644   2.644
   292.43    2.644   2.644   2.644   2.644   2.644   2.644   2.644   2.644   2.644   2.644   2.644   2.644   2.644   2.644   2.644   2.644   2.644   2.644   2.644   2.644   2.644   2.644   2.644   2.644   2.644   2.644   2.644   2.644   2.644   2.644   2.644   2.644   2.644   2.644   2.644   2.644
   283.86    2.644   2.644   2.644   2.644   2.644   2.644   2.644   2.644   2.644   2.644   2.644   2.644   2.644   2.644   2.644   2.644   2.644   2.644   2.644   2.644   2.644   2.644   2.644   2.644   2.644   2.644   2.644   2.644   2.644   2.644   2.644   2.644   2.644   2.644   2.644   2.644
   275.29    2.644   2.644   2.644   2.644   2.644   2.644   2.644   2.644   2.644   2.644   2.644   2.644   2.644   2.644   2.644   2.644   2.644   2.644   2.644   2.644   2.644   2.644   2.644   2.644   2.644   2.644   2.644   2.644   2.644   2.644   2.644   2.644   2.644   2.644   2.644   2.644
   266.71    2.644   2.644   2.644   2.644   2.644   2.644   2.644   2.644   2.644   2.644   2.644   2.644   2.644   2.644   2.644   2.644   2.644   2.644   2.644   2.644   2.644   2.644   2.644   2.644   2.644   2.644   2.644   2.644   2.644   2.644   2.644   2.644   2.644   2.644   2.644   2.644
   258.14    2.644   2.644   2.644   2.644   2.644   2.644   2.644   2.644   2.644   2.644   2.644   2.644   2.644   2.644   2.644   2.644   2.644   2.644   2.644   2.644   2.644   2.644   2.644   2.644   2.644   2.644   2.644   2.644   2.644   2.644   2.644   2.644   2.644   2.644   2.644   2.644
   249.57    2.644   2.644   2.644   2.644   2.644   2.644   2.644   2.644   2.644   2.644   2.644   2.644   2.644   2.644   2.644   2.644   2.644   2.644   2.644   2.644   2.644   2.644   2.644   2.644   2.644   2.644   2.644   2.644   2.644   2.644   2.644   2.644   2.644   2.644   2.644   2.644
   241.00    2.644   2.644   2.644   2.644   2.644   2.644   2.644   2.644   2.644   2.644   2.644   2.644   2.644   2.644   2.644   2.644   2.644   2.644   2.644   2.644   2.644   2.644   2.644   2.644   2.644   2.644   2.644   2.644   2.644   2.644   2.644   2.644   2.644   2.644   2.644   2.644
   232.43    2.644   2.644   2.644   2.644   2.644   2.644   2.644   2.644   2.644   2.644   2.644   2.644   2.644   2.644   2.644   2.644   2.644   2.644   2.644   2.644   2.644   2.644   2.644   2.644   2.644   2.644   2.644   2.644   2.644   2.644   2.644   2.644   2.644   2.644   2.644   2.644
   223.86    2.644   2.644   2.644   2.644   2.644   2.644   2.644   2.644   2.644   2.644   2.644   2.644   2.644   2.644   2.644   2.644   2.644   2.644   2.644   2.644   2.644   2.644   2.644   2.644   2.644   2.644   2.644   2.644   2.644   2.644   2.644   2.644   2.644   2.644   2.644   2.644
   215.29    2.644   2.644   2.644   2.644   2.644   2.644   2.644   2.644   2.644   2.644   2.644   2.644   2.644   2.644   2.644   2.644   2.644   2.644   2.644   2.644   2.644   2.644   2.644   2.644   2.644   2.644   2.644   2.644   2.644   2.644   2.644   2.644   2.644   2.644   2.644   2.644
   206.71    2.644   2.644   2.644   2.644   2.644   2.644   2.644   2.644   2.644   2.644   2.644   2.644   2.644   2.644   2.644   2.644   2.644   2.644   2.644   2.644   2.644   2.644   2.644   2.644   2.644   2.644   2.644   2.644   2.644   2.644   2.644   2.644   2.644   2.644   2.644   2.644
   198.14    2.644   2.644   2.644   2.644   2.644   2.644   2.644   2.644   2.644   2.644   2.644   2.644   2.644   2.644   2.644   2.644   2.644   2.644   2.644   2.644   2.644   2.644   2.644   2.644   2.644   2.644   2.644   2.644   2.644   2.644   2.644   2.644   2.644   2.644   2.644   2.644
   189.57    2.644   2.644   2.644   2.644   2.644   2.644   2.644   2.644   2.644   2.644   2.644   2.644   2.644   2.644   2.644   2.644   2.644   2.644   2.644   2.644   2.644   2.644   2.644   2.644   2.644   2.644   2.644   2.644   2.644   2.644   2.644   2.644   2.644   2.644   2.644   2.644
   181.00    2.644   2.644   2.644   2.644   2.644   2.644   2.644   2.644   2.644   2.644   2.644   2.644   2.644   2.644   2.644   2.644   2.644   2.644   2.644   2.644   2.644   2.644   2.644   2.644   2.644   2.644   2.644   2.644   2.644   2.644   2.644   2.644   2.644   2.644   2.644   2.644
   172.43    2.644   2.644   2.644   2.644   2.644   2.644   2.644   2.644   2.644   2.644   2.644   2.644   2.644   2.644   2.644   2.644   2.644   2.644   2.644   2.644   2.644   2.644   2.644   2.644   2.644   2.644   2.644   2.644   2.644   2.644   2.644   2.644   2.644   2.644   2.644   2.644
   163.86    2.644   2.644   2.644   2.644   2.644   2.644   2.644   2.644   2.644   2.644   2.644   2.644   2.644   2.644   2.644   2.644   2.644   2.644   2.644   2.644   2.644   2.644   2.644   2.644   2.644   2.644   2.644   2.644   2.644   2.644   2.644   2.644   2.644   2.644   2.644   2.644
   155.29    2.644   2.644   2.644   2.644   2.644   2.644   2.644   2.644   2.644   2.644   2.644   2.644   2.644   2.644   2.644   2.644   2.644   2.644   2.644   2.644   2.644   2.644   2.644   2.644   2.644   2.644   2.644   2.644   2.644   2.644   2.644   2.644   2.644   2.644   2.644   2.644
   146.71    2.644   2.644   2.644   2.644   2.644   2.644   2.644   2.644   2.644   2.644   2.644   2.644   2.644   2.644   2.644   2.644   2.644   2.644   2.644   2.644   2.644   2.644   2.644   2.644   2.644   2.644   2.644   2.644   2.644   2.644   2.644   2.644   2.644   2.644   2.644   2.644
   138.14    2.644   2.644   2.644   2.644   2.644   2.644   2.644   2.644   2.644   2.644   2.644   2.644   2.644   2.644   2.644   2.644   2.644   2.644   2.644   2.644   2.644   2.644   2.644   2.644   2.644   2.644   2.644   2.644   2.644   2.644   2.644   2.644   2.644   2.644   2.644   2.644
   129.57    2.644   2.644   2.644   2.644   2.644   2.644   2.644   2.644   2.644   2.644   2.644   2.644   2.644   2.644   2.644   2.644   2.644   2.644   2.644   2.644   2.644   2.644   2.644   2.644   2.644   2.644   2.644   2.644   2.644   2.644   2.644   2.644   2.644   2.644   2.644   2.644
   121.00    2.644   2.644   2.644   2.644   2.644   2.644   2.644   2.644   2.644   2.644   2.644   2.644   2.644   2.644   2.644   2.644   2.644   2.644   2.644   2.644   2.644   2.644   2.644   2.644   2.644   2.644   2.644   2.644   2.644   2.644   2.644   2.644   2.644   2.644   2.644   2.644
   112.43    2.644   2.644   2.644   2.644   2.644   2.644   2.644   2.644   2.644   2.644   2.644   2.644   2.644   2.644   2.644   2.644   2.644   2.644   2.644   2.644   2.644   2.644   2.644   2.644   2.644   2.644   2.644   2.644   2.644   2.644   2.644   2.644   2.644   2.644   2.644   2.644
   103.86    2.644   2.644   2.644   2.644   2.644   2.644   2.644   2.644   2.644   2.644   2.644   2.644   2.644   2.644   2.644   2.644   2.644   2.644   2.644   2.644   2.644   2.644   2.644   2.644   2.644   2.644   2.644   2.644   2.644   2.644   2.644   2.644   2.644   2.644   2.644   2.644
    95.29    2.644   2.644   2.644   2.644   2.644   2.644   2.644   2.644   2.644   2.644   2.644   2.644   2.644   2.644   2.644   2.644   2.644   2.644   2.644   2.644   2.644   2.644   2.644   2.644   2.644   2.644   2.644   2.644   2.644   2.644   2.644   2.644   2.644   2.644   2.644   2.644
    86.71    2.644   2.644   2.644   2.644   2.644   2.644   2.644   2.644   2.644   2.644   2.644   2.644   2.644   2.644   2.644   2.644   2.644   2.644   2.644   2.644   2.644   2.644   2.644   2.644   2.644   2.644   2.644   2.644   2.644   2.644   2.644   2.644   2.644   2.644   2.644   2.644
    78.14    2.644   2.644   2.644   2.644   2.644   2.644   2.644   2.644   2.644   2.644   2.644   2.644   2.644   2.644   2.644   2.644   2.644   2.644   2.644   2.644   2.644   2.644   2.644   2.644   2.644   2.644   2.644   2.644   2.644   2.644   2.644   2.644   2.644   2.644   2.644   2.644
    69.57    2.644   2.644   2.644   2.644   2.644   2.644   2.644   2.644   2.644   2.644   2.644   2.644   2.644   2.644   2.644   2.644   2.644   2.644   2.644   2.644   2.644   2.644   2.644   2.644   2.644   2.644   2.644   2.644   2.644   2.644   2.644   2.644   2.644   2.644   2.644   2.644
    61.00    2.644   2.644   2.644   2.644   2.644   2.644   2.644   2.644   2.644   2.644   2.644   2.644   2.644   2.644   2.644   2.644   2.644   2.644   2.644   2.644   2.644   2.644   2.644   2.644   2.644   2.644   2.644   2.644   2.644   2.644   2.644   2.644   2.644   2.644   2.644   2.644
    52.43    2.644   2.644   2.644   2.644   2.644   2.644   2.644   2.644   2.644   2.644   2.644   2.644   2.644   2.644   2.644   2.644   2.644   2.644   2.644   2.644   2.644   2.644   2.644   2.644   2.644   2.644   2.644   2.644   2.644   2.644   2.644   2.644   2.644   2.644   2.644   2.644
    43.86    2.644   2.644   2.644   2.644   2.644   2.644   2.644   2.644   2.644   2.644   2.644   2.644   2.644   2.644   2.644   2.644   2.644   2.644   2.644   2.644   2.644   2.644   2.644   2.644   2.644   2.644   2.644   2.644   2.644   2.644   2.644   2.644   2.644   2.644   2.644   2.644
    35.29    2.644   2.644   2.644   2.644   2.644   2.644   2.644   2.644   2.644   2.644   2.644   2.644   2.644   2.644   2.644   2.644   2.644   2.644   2.644   2.644   2.644   2.644   2.644   2.644   2.644   2.644   2.644   2.644   2.644   2.644   2.644   2.644   2.644   2.644   2.644   2.644
    26.71    2.644   2.644   2.644   2.644   2.644   2.644   2.644   2.644   2.644   2.644   2.644   2.644   2.644   2.644   2.644   2.644   2.644   2.644   2.644   2.644   2.644   2.644   2.644   2.644   2.644   2.644   2.644   2.644   2.644   2.644   2.644   2.644   2.644   2.644   2.644   2.644
    18.14    2.644   2.644   2.644   2.644   2.644   2.644   2.644   2.644   2.644   2.644   2.644   2.644   2.644   2.644   2.644   2.644   2.644   2.644   2.644   2.644   2.644   2.644   2.644   2.644   2.644   2.644   2.644   2.644   2.644   2.644   2.644   2.644   2.644   2.644   2.644   2.644
     9.57    2.644   2.644   2.644   2.644   2.644   2.644   2.644   2.644   2.644   2.644   2.644   2.644   2.644   2.644   2.644   2.644   2.644   2.644   2.644   2.644   2.644   2.644   2.644   2.644   2.644   2.644   2.644   2.644   2.644   2.644   2.644   2.644   2.644   2.644   2.644   2.644
     1.00    2.644   2.644   2.644   2.644   2.644   2.644   2.644   2.644   2.644   2.644   2.644   2.644   2.644   2.644   2.644   2.644   2.644   2.644   2.644   2.644   2.644   2.644   2.644   2.644   2.644   2.644   2.644   2.644   2.644   2.644   2.644   2.644   2.644   2.644   2.644   2.644

   Height   Standard deviation at grid points for the w component:
   301.00    2.644   2.644   2.644   2.644   2.644   2.644   2.644   2.644   2.644   2.644   2.644   2.644   2.644   2.644   2.644   2.644   2.644   2.644   2.644   2.644   2.644   2.644   2.644   2.644   2.644   2.644   2.644   2.644   2.644   2.644   2.644   2.644   2.644   2.644   2.644   2.644
   292.43    2.644   2.644   2.644   2.644   2.644   2.644   2.644   2.644   2.644   2.644   2.644   2.644   2.644   2.644   2.644   2.644   2.644   2.644   2.644   2.644   2.644   2.644   2.644   2.644   2.644   2.644   2.644   2.644   2.644   2.644   2.644   2.644   2.644   2.644   2.644   2.644
   283.86    2.644   2.644   2.644   2.644   2.644   2.644   2.644   2.644   2.644   2.644   2.644   2.644   2.644   2.644   2.644   2.644   2.644   2.644   2.644   2.644   2.644   2.644   2.644   2.644   2.644   2.644   2.644   2.644   2.644   2.644   2.644   2.644   2.644   2.644   2.644   2.644
   275.29    2.644   2.644   2.644   2.644   2.644   2.644   2.644   2.644   2.644   2.644   2.644   2.644   2.644   2.644   2.644   2.644   2.644   2.644   2.644   2.644   2.644   2.644   2.644   2.644   2.644   2.644   2.644   2.644   2.644   2.644   2.644   2.644   2.644   2.644   2.644   2.644
   266.71    2.644   2.644   2.644   2.644   2.644   2.644   2.644   2.644   2.644   2.644   2.644   2.644   2.644   2.644   2.644   2.644   2.644   2.644   2.644   2.644   2.644   2.644   2.644   2.644   2.644   2.644   2.644   2.644   2.644   2.644   2.644   2.644   2.644   2.644   2.644   2.644
   258.14    2.644   2.644   2.644   2.644   2.644   2.644   2.644   2.644   2.644   2.644   2.644   2.644   2.644   2.644   2.644   2.644   2.644   2.644   2.644   2.644   2.644   2.644   2.644   2.644   2.644   2.644   2.644   2.644   2.644   2.644   2.644   2.644   2.644   2.644   2.644   2.644
   249.57    2.644   2.644   2.644   2.644   2.644   2.644   2.644   2.644   2.644   2.644   2.644   2.644   2.644   2.644   2.644   2.644   2.644   2.644   2.644   2.644   2.644   2.644   2.644   2.644   2.644   2.644   2.644   2.644   2.644   2.644   2.644   2.644   2.644   2.644   2.644   2.644
   241.00    2.644   2.644   2.644   2.644   2.644   2.644   2.644   2.644   2.644   2.644   2.644   2.644   2.644   2.644   2.644   2.644   2.644   2.644   2.644   2.644   2.644   2.644   2.644   2.644   2.644   2.644   2.644   2.644   2.644   2.644   2.644   2.644   2.644   2.644   2.644   2.644
   232.43    2.644   2.644   2.644   2.644   2.644   2.644   2.644   2.644   2.644   2.644   2.644   2.644   2.644   2.644   2.644   2.644   2.644   2.644   2.644   2.644   2.644   2.644   2.644   2.644   2.644   2.644   2.644   2.644   2.644   2.644   2.644   2.644   2.644   2.644   2.644   2.644
   223.86    2.644   2.644   2.644   2.644   2.644   2.644   2.644   2.644   2.644   2.644   2.644   2.644   2.644   2.644   2.644   2.644   2.644   2.644   2.644   2.644   2.644   2.644   2.644   2.644   2.644   2.644   2.644   2.644   2.644   2.644   2.644   2.644   2.644   2.644   2.644   2.644
   215.29    2.644   2.644   2.644   2.644   2.644   2.644   2.644   2.644   2.644   2.644   2.644   2.644   2.644   2.644   2.644   2.644   2.644   2.644   2.644   2.644   2.644   2.644   2.644   2.644   2.644   2.644   2.644   2.644   2.644   2.644   2.644   2.644   2.644   2.644   2.644   2.644
   206.71    2.644   2.644   2.644   2.644   2.644   2.644   2.644   2.644   2.644   2.644   2.644   2.644   2.644   2.644   2.644   2.644   2.644   2.644   2.644   2.644   2.644   2.644   2.644   2.644   2.644   2.644   2.644   2.644   2.644   2.644   2.644   2.644   2.644   2.644   2.644   2.644
   198.14    2.644   2.644   2.644   2.644   2.644   2.644   2.644   2.644   2.644   2.644   2.644   2.644   2.644   2.644   2.644   2.644   2.644   2.644   2.644   2.644   2.644   2.644   2.644   2.644   2.644   2.644   2.644   2.644   2.644   2.644   2.644   2.644   2.644   2.644   2.644   2.644
   189.57    2.644   2.644   2.644   2.644   2.644   2.644   2.644   2.644   2.644   2.644   2.644   2.644   2.644   2.644   2.644   2.644   2.644   2.644   2.644   2.644   2.644   2.644   2.644   2.644   2.644   2.644   2.644   2.644   2.644   2.644   2.644   2.644   2.644   2.644   2.644   2.644
   181.00    2.644   2.644   2.644   2.644   2.644   2.644   2.644   2.644   2.644   2.644   2.644   2.644   2.644   2.644   2.644   2.644   2.644   2.644   2.644   2.644   2.644   2.644   2.644   2.644   2.644   2.644   2.644   2.644   2.644   2.644   2.644   2.644   2.644   2.644   2.644   2.644
   172.43    2.644   2.644   2.644   2.644   2.644   2.644   2.644   2.644   2.644   2.644   2.644   2.644   2.644   2.644   2.644   2.644   2.644   2.644   2.644   2.644   2.644   2.644   2.644   2.644   2.644   2.644   2.644   2.644   2.644   2.644   2.644   2.644   2.644   2.644   2.644   2.644
   163.86    2.644   2.644   2.644   2.644   2.644   2.644   2.644   2.644   2.644   2.644   2.644   2.644   2.644   2.644   2.644   2.644   2.644   2.644   2.644   2.644   2.644   2.644   2.644   2.644   2.644   2.644   2.644   2.644   2.644   2.644   2.644   2.644   2.644   2.644   2.644   2.644
   155.29    2.644   2.644   2.644   2.644   2.644   2.644   2.644   2.644   2.644   2.644   2.644   2.644   2.644   2.644   2.644   2.644   2.644   2.644   2.644   2.644   2.644   2.644   2.644   2.644   2.644   2.644   2.644   2.644   2.644   2.644   2.644   2.644   2.644   2.644   2.644   2.644
   146.71    2.644   2.644   2.644   2.644   2.644   2.644   2.644   2.644   2.644   2.644   2.644   2.644   2.644   2.644   2.644   2.644   2.644   2.644   2.644   2.644   2.644   2.644   2.644   2.644   2.644   2.644   2.644   2.644   2.644   2.644   2.644   2.644   2.644   2.644   2.644   2.644
   138.14    2.644   2.644   2.644   2.644   2.644   2.644   2.644   2.644   2.644   2.644   2.644   2.644   2.644   2.644   2.644   2.644   2.644   2.644   2.644   2.644   2.644   2.644   2.644   2.644   2.644   2.644   2.644   2.644   2.644   2.644   2.644   2.644   2.644   2.644   2.644   2.644
   129.57    2.644   2.644   2.644   2.644   2.644   2.644   2.644   2.644   2.644   2.644   2.644   2.644   2.644   2.644   2.644   2.644   2.644   2.644   2.644   2.644   2.644   2.644   2.644   2.644   2.644   2.644   2.644   2.644   2.644   2.644   2.644   2.644   2.644   2.644   2.644   2.644
   121.00    2.644   2.644   2.644   2.644   2.644   2.644   2.644   2.644   2.644   2.644   2.644   2.644   2.644   2.644   2.644   2.644   2.644   2.644   2.644   2.644   2.644   2.644   2.644   2.644   2.644   2.644   2.644   2.644   2.644   2.644   2.644   2.644   2.644   2.644   2.644   2.644
   112.43    2.644   2.644   2.644   2.644   2.644   2.644   2.644   2.644   2.644   2.644   2.644   2.644   2.644   2.644   2.644   2.644   2.644   2.644   2.644   2.644   2.644   2.644   2.644   2.644   2.644   2.644   2.644   2.644   2.644   2.644   2.644   2.644   2.644   2.644   2.644   2.644
   103.86    2.644   2.644   2.644   2.644   2.644   2.644   2.644   2.644   2.644   2.644   2.644   2.644   2.644   2.644   2.644   2.644   2.644   2.644   2.644   2.644   2.644   2.644   2.644   2.644   2.644   2.644   2.644   2.644   2.644   2.644   2.644   2.644   2.644   2.644   2.644   2.644
    95.29    2.644   2.644   2.644   2.644   2.644   2.644   2.644   2.644   2.644   2.644   2.644   2.644   2.644   2.644   2.644   2.644   2.644   2.644   2.644   2.644   2.644   2.644   2.644   2.644   2.644   2.644   2.644   2.644   2.644   2.644   2.644   2.644   2.644   2.644   2.644   2.644
    86.71    2.644   2.644   2.644   2.644   2.644   2.644   2.644   2.644   2.644   2.644   2.644   2.644   2.644   2.644   2.644   2.644   2.644   2.644   2.644   2.644   2.644   2.644   2.644   2.644   2.644   2.644   2.644   2.644   2.644   2.644   2.644   2.644   2.644   2.644   2.644   2.644
    78.14    2.644   2.644   2.644   2.644   2.644   2.644   2.644   2.644   2.644   2.644   2.644   2.644   2.644   2.644   2.644   2.644   2.644   2.644   2.644   2.644   2.644   2.644   2.644   2.644   2.644   2.644   2.644   2.644   2.644   2.644   2.644   2.644   2.644   2.644   2.644   2.644
    69.57    2.644   2.644   2.644   2.644   2.644   2.644   2.644   2.644   2.644   2.644   2.644   2.644   2.644   2.644   2.644   2.644   2.644   2.644   2.644   2.644   2.644   2.644   2.644   2.644   2.644   2.644   2.644   2.644   2.644   2.644   2.644   2.644   2.644   2.644   2.644   2.644
    61.00    2.644   2.644   2.644   2.644   2.644   2.644   2.644   2.644   2.644   2.644   2.644   2.644   2.644   2.644   2.644   2.644   2.644   2.644   2.644   2.644   2.644   2.644   2.644   2.644   2.644   2.644   2.644   2.644   2.644   2.644   2.644   2.644   2.644   2.644   2.644   2.644
    52.43    2.644   2.644   2.644   2.644   2.644   2.644   2.644   2.644   2.644   2.644   2.644   2.644   2.644   2.644   2.644   2.644   2.644   2.644   2.644   2.644   2.644   2.644   2.644   2.644   2.644   2.644   2.644   2.644   2.644   2.644   2.644   2.644   2.644   2.644   2.644   2.644
    43.86    2.644   2.644   2.644   2.644   2.644   2.644   2.644   2.644   2.644   2.644   2.644   2.644   2.644   2.644   2.644   2.644   2.644   2.644   2.644   2.644   2.644   2.644   2.644   2.644   2.644   2.644   2.644   2.644   2.644   2.644   2.644   2.644   2.644   2.644   2.644   2.644
    35.29    2.644   2.644   2.644   2.644   2.644   2.644   2.644   2.644   2.644   2.644   2.644   2.644   2.644   2.644   2.644   2.644   2.644   2.644   2.644   2.644   2.644   2.644   2.644   2.644   2.644   2.644   2.644   2.644   2.644   2.644   2.644   2.644   2.644   2.644   2.644   2.644
    26.71    2.644   2.644   2.644   2.644   2.644   2.644   2.644   2.644   2.644   2.644   2.644   2.644   2.644   2.644   2.644   2.644   2.644   2.644   2.644   2.644   2.644   2.644   2.644   2.644   2.644   2.644   2.644   2.644   2.644   2.644   2.644   2.644   2.644   2.644   2.644   2.644
    18.14    2.644   2.644   2.644   2.644   2.644   2.644   2.644   2.644   2.644   2.644   2.644   2.644   2.644   2.644   2.644   2.644   2.644   2.644   2.644   2.644   2.644   2.644   2.644   2.644   2.644   2.644   2.644   2.644   2.644   2.644   2.644   2.644   2.644   2.644   2.644   2.644
     9.57    2.644   2.644   2.644   2.644   2.644   2.644   2.644   2.644   2.644   2.644   2.644   2.644   2.644   2.644   2.644   2.644   2.644   2.644   2.644   2.644   2.644   2.644   2.644   2.644   2.644   2.644   2.644   2.644   2.644   2.644   2.644   2.644   2.644   2.644   2.644   2.644
     1.00    2.644   2.644   2.644   2.644   2.644   2.644   2.644   2.644   2.644   2.644   2.644   2.644   2.644   2.644   2.644   2.644   2.644   2.644   2.644   2.644   2.644   2.644   2.644   2.644   2.644   2.644   2.644   2.644   2.644   2.644   2.644   2.644   2.644   2.644   2.644   2.644

   Mean standard deviation across all grid points:
      u component:    2.497 m/s
      v component:    2.644 m/s
      w component:    2.644 m/s


U-component (X) statistics from the interpolated hub point:

   Mean =  14.9596 m/s
   TI   =  12.3772 %


Normalizing Parameters for Binary Data (approximate statistics):

   UBar  =  14.9606 m/s
   TI(u) =  14.9772 %
   TI(v) =  17.6723 %
   TI(w) =  17.6723 %

   Height Offset =   0.0000 m
   Grid Base     =   1.0000 m

Creating a PERIODIC output file.


Processing complete.  116.03 CPU seconds used.
