
This summary file was generated by TurbSim (v2.00.07a-bjj, 14-Jun-2016) on 03-Nov-2023 at 03:24:07.


Runtime Options:

      4001  Random seed #1
    RANLUX  Type of random number generator
         F  Output binary HH turbulence parameters?
         F  Output formatted turbulence parameters?
         F  Output AeroDyn HH files?
         F  Output AeroDyn FF files?
         T  Output BLADED FF files?
         F  Output tower data?
         F  Output formatted FF files?
         F  Output coherent turbulence time step file?
         T  Clockwise rotation when looking downwind?
 0 -  NONE  IEC turbulence models scaled to exact specified standard deviation


Turbine/Model Specifications:

        36  Vertical grid-point matrix dimension
        36  Horizontal grid-point matrix dimension
     0.100  Time step [seconds]
   660.000  Analysis time [seconds]
   660.000  Usable output time [seconds]
   151.000  Hub height [m]
   300.000  Grid height [m]
   300.000  Grid width [m]
     0.000  Vertical flow angle [degrees]
     0.000  Horizontal flow angle [degrees]


Meteorological Boundary Conditions:

    IECVKM  IEC von Karman spectral model
         1  IEC standard: IEC 61400-1 Ed. 3: 2005
         A  IEC turbulence characteristic
       NTM  IEC Normal Turbulence Model
       N/A  IEC Extreme Turbulence Model (ETM) "c" parameter [m/s]
       PL   Wind profile type
   153.000  Reference height [m]
    18.000  Reference wind speed [m/s]
       N/A  Jet height [m]
     0.200  Power law exponent
     0.030  Surface roughness length [m]


Non-IEC Meteorological Boundary Conditions:

       N/A  Site latitude [degrees]
       N/A  Gradient Richardson number
       N/A  Friction or shear velocity [m/s]
       N/A  Mixing layer depth [m]
       N/A  Mean hub u'w' Reynolds stress
       N/A  Mean hub u'v' Reynolds stress
       N/A  Mean hub v'w' Reynolds stress


Spatial Coherence Models:

       IEC  u-component coherence model
      NONE  v-component coherence model
      NONE  w-component coherence model
(   12.000, 0.353E-03)  u-component coherence parameters
                   N/A  v-component coherence parameters
                   N/A  w-component coherence parameters
       N/A  Coherence exponent


You have requested that the following file(s) be generated:

   G:\2023\OpenWECDV1.0.0_x64\BaseLIne\wind\WindL_V_18_seed_4001.wnd (AeroDyn/BLADED full-field wnd file)


Turbulence Simulation Scaling Parameter Summary:

   Turbulence model used                            =  IEC von Karman
   Turbulence characteristic                        =  A
   IEC turbulence type                              =  Normal Turbulence Model
   IEC standard                                     =  IEC 61400-1 Ed. 3: 2005
   Mean wind speed at hub height                    =   17.953 m/s
   Expected value of turbulence intensity at 15 m/s =   16.000%
   Characteristic value of standard deviation       =    3.050 m/s
   Turbulence scale                                 =   42.000 m
   Isotropic integral scale                         =  147.000 m
   Characteristic value of hub turbulence intensity =   16.991%
   Gradient Richardson number                       =    0.000

   Wind profile type                                =  Power law
   Power law exponent                               =    0.200
   Mean shear across rotor disk                     =    0.047 (m/s)/m
   Assumed rotor diameter                           =  300.000 m
   Surface roughness length                         =    0.030 m

   Nyquist frequency of turbulent wind field        =    5.000 Hz

   Number of time steps in the FFT                  =     6600
   Number of time steps output                      =     6600
   Number of points simulated                       =     1297


Mean Flow Angles:

   Vertical   =   0.0 degrees
   Horizontal =   0.0 degrees

Mean Wind Speed Profile:

   Height    Wind Speed   Horizontal Angle  Vertical Angle  U-comp (X)   V-comp (Y)   W-comp (Z)
     (m)        (m/s)         (degrees)       (degrees)       (m/s)        (m/s)        (m/s)   
   ------    ----------   ----------------  --------------  ----------   ----------   ----------
    301.0       20.61            0.00            0.00         20.61         0.00         0.00
    292.4       20.49            0.00            0.00         20.49         0.00         0.00
    283.9       20.37            0.00            0.00         20.37         0.00         0.00
    275.3       20.24            0.00            0.00         20.24         0.00         0.00
    266.7       20.12            0.00            0.00         20.12         0.00         0.00
    258.1       19.99            0.00            0.00         19.99         0.00         0.00
    249.6       19.85            0.00            0.00         19.85         0.00         0.00
    241.0       19.71            0.00            0.00         19.71         0.00         0.00
    232.4       19.57            0.00            0.00         19.57         0.00         0.00
    223.9       19.42            0.00            0.00         19.42         0.00         0.00
    215.3       19.27            0.00            0.00         19.27         0.00         0.00
    206.7       19.12            0.00            0.00         19.12         0.00         0.00
    198.1       18.96            0.00            0.00         18.96         0.00         0.00
    189.6       18.79            0.00            0.00         18.79         0.00         0.00
    181.0       18.62            0.00            0.00         18.62         0.00         0.00
    172.4       18.44            0.00            0.00         18.44         0.00         0.00
    163.9       18.25            0.00            0.00         18.25         0.00         0.00
    155.3       18.05            0.00            0.00         18.05         0.00         0.00
    151.0       17.95            0.00            0.00         17.95         0.00         0.00
    146.7       17.85            0.00            0.00         17.85         0.00         0.00
    138.1       17.64            0.00            0.00         17.64         0.00         0.00
    129.6       17.41            0.00            0.00         17.41         0.00         0.00
    121.0       17.17            0.00            0.00         17.17         0.00         0.00
    112.4       16.92            0.00            0.00         16.92         0.00         0.00
    103.9       16.66            0.00            0.00         16.66         0.00         0.00
     95.3       16.37            0.00            0.00         16.37         0.00         0.00
     86.7       16.07            0.00            0.00         16.07         0.00         0.00
     78.1       15.74            0.00            0.00         15.74         0.00         0.00
     69.6       15.38            0.00            0.00         15.38         0.00         0.00
     61.0       14.98            0.00            0.00         14.98         0.00         0.00
     52.4       14.53            0.00            0.00         14.53         0.00         0.00
     43.9       14.02            0.00            0.00         14.02         0.00         0.00
     35.3       13.42            0.00            0.00         13.42         0.00         0.00
     26.7       12.70            0.00            0.00         12.70         0.00         0.00
     18.1       11.75            0.00            0.00         11.75         0.00         0.00
      9.6       10.34            0.00            0.00         10.34         0.00         0.00
      1.0        6.58            0.00            0.00          6.58         0.00         0.00


Harvested Random Seeds after Generation of the Random Numbers:

    119307688 K 1
            0 K 2


Hub-Height Simulated Turbulence Statistical Summary:

   Type of Wind        Min (m/s)   Mean (m/s)    Max (m/s)  Sigma (m/s)       TI (%)
   ----------------    ---------   ----------    ---------  -----------       ------
   Longitudinal (u)         7.44        17.95        28.97        3.084       17.178
   Lateral (v)            -11.50        -0.00        11.26        2.997       16.694
   Vertical (w)            -9.00        -0.00        11.44        2.997       16.694
   U component              7.44        17.95        28.97        3.084       17.178
   V component            -11.50        -0.00        11.26        2.997       16.694
   W component             -9.00        -0.00        11.44        2.997       16.694
   Horizontal (U&V)         7.53        18.21        29.32        3.054       16.775
   Total                    9.01        18.46        29.32        3.011       16.315

                       Min Reynolds     Mean Reynolds    Max Reynolds    Correlation
   Product             Stress (m/s)^2   Stress (m/s)^2   Stress (m/s)^2  Coefficient
   ----------------    --------------   --------------   --------------  -----------
   u'w'                    -78.837            -1.123            37.887        -0.122
   u'v'                    -49.717             0.849            56.268         0.092
   v'w'                    -93.979             0.016            35.213         0.002


   Friction Velocity (Ustar)  =      1.060 m/s
   Maximum Instantaneous TKE  =     97.125 (m/s)^2
   Maximum Instantaneous CTKE =     47.288 (m/s)^2


Grid Point Variance Summary:

   Y-coord -150.00 -141.43 -132.86 -124.29 -115.71 -107.14  -98.57  -90.00  -81.43  -72.86  -64.29  -55.71  -47.14  -38.57  -30.00  -21.43  -12.86   -4.29    4.29   12.86   21.43   30.00   38.57   47.14   55.71   64.29   72.86   81.43   90.00   98.57  107.14  115.71  124.29  132.86  141.43  150.00

   Height   Standard deviation at grid points for the u component:
   301.00    2.775   2.887   2.927   2.978   3.004   2.978   2.821   2.823   2.784   2.836   2.892   2.998   2.961   2.987   2.798   2.890   3.059   3.081   2.975   2.956   2.961   2.967   3.066   3.101   3.074   3.234   3.233   3.063   3.013   3.023   2.940   2.972   2.871   2.831   2.742   2.740
   292.43    3.108   3.052   2.882   2.979   3.068   3.052   2.859   2.824   2.760   2.796   2.845   2.913   2.917   2.883   2.863   2.857   2.866   2.984   2.918   2.948   2.843   2.803   3.019   2.922   2.942   3.000   3.133   2.977   2.941   2.791   2.800   2.977   2.976   2.785   2.837   2.718
   283.86    2.822   2.918   2.994   2.994   3.018   2.973   3.041   2.916   2.770   2.913   2.783   2.781   2.756   2.748   2.820   2.792   2.764   2.997   3.087   3.167   2.967   2.812   2.805   2.942   3.020   2.922   3.011   3.068   3.005   2.862   2.737   2.855   2.712   2.767   3.019   2.803
   275.29    2.935   2.890   2.898   3.016   2.956   2.960   2.787   2.851   2.904   2.895   2.698   2.703   2.767   2.711   2.780   2.719   2.888   2.962   3.131   3.135   3.147   2.866   2.793   2.869   2.936   2.981   2.908   2.962   2.870   2.729   2.605   2.674   2.744   2.827   2.992   2.944
   266.71    2.987   2.805   2.850   2.912   3.091   2.834   2.738   2.645   2.740   2.938   2.708   2.869   2.894   2.801   2.707   2.712   2.872   2.919   3.066   3.042   3.049   2.972   2.864   2.990   3.155   2.942   2.965   2.953   2.791   2.730   2.683   2.718   2.732   2.772   2.841   2.937
   258.14    2.962   2.902   3.029   3.029   3.012   2.906   2.734   2.796   2.747   2.878   2.747   2.836   2.753   2.725   2.771   2.726   2.696   3.037   2.867   3.128   2.902   3.039   3.117   2.903   3.095   3.016   2.969   2.974   2.902   2.839   2.838   2.803   2.942   2.726   2.909   3.013
   249.57    2.871   3.003   2.900   2.836   2.951   2.965   3.030   2.960   2.689   2.814   2.666   2.742   2.773   2.768   2.779   2.799   2.661   2.773   2.896   2.918   2.863   3.031   3.169   3.005   2.973   3.024   2.982   3.047   2.834   2.914   2.763   2.969   2.924   2.983   3.079   3.119
   241.00    2.804   2.925   2.885   2.762   2.795   2.987   2.944   2.831   2.783   2.742   2.791   2.835   2.971   2.889   3.018   2.972   2.737   2.741   2.808   2.826   2.927   2.962   3.045   2.996   3.058   2.993   3.056   2.967   2.982   2.851   2.943   3.002   3.074   3.015   3.210   3.181
   232.43    2.937   2.737   2.723   2.770   2.761   2.892   2.973   2.913   2.828   2.770   2.787   3.083   3.137   3.018   3.055   2.851   2.706   2.814   2.889   2.819   2.869   2.752   3.049   3.125   3.120   3.116   2.974   3.048   2.909   2.809   2.954   3.001   3.229   3.182   3.242   3.224
   223.86    3.079   2.844   2.828   2.580   2.802   2.795   2.961   3.101   2.988   2.914   3.035   2.976   3.118   3.174   3.088   3.038   2.800   2.767   2.776   2.878   2.821   2.875   3.011   3.014   2.985   2.990   3.115   2.948   2.897   2.921   2.995   3.026   3.120   3.152   3.277   3.328
   215.29    3.032   2.976   2.717   2.720   2.642   2.814   2.857   2.936   2.865   2.872   2.884   3.107   3.146   3.058   3.054   2.983   2.850   2.822   2.873   2.829   2.807   2.920   2.985   3.112   2.819   2.897   2.951   2.887   2.836   2.793   2.865   2.931   3.008   3.069   3.039   3.128
   206.71    3.076   2.978   2.909   2.693   2.705   2.595   2.705   2.866   2.807   2.975   2.908   2.972   2.994   3.090   3.029   3.009   2.905   2.621   2.922   2.912   2.865   3.147   3.004   2.928   2.791   2.857   2.975   2.933   2.808   2.792   2.739   2.822   2.907   2.967   3.131   3.196
   198.14    2.851   2.876   2.862   2.689   2.628   2.816   2.834   2.893   2.831   3.020   2.964   3.052   3.126   2.979   3.093   3.162   2.928   2.827   2.985   3.151   3.089   3.171   3.035   3.014   2.984   2.903   3.020   2.940   2.873   2.983   2.764   2.744   2.837   2.937   3.009   3.005
   189.57    2.870   2.683   2.824   2.697   2.746   2.634   2.727   2.825   2.748   2.785   2.989   3.058   3.133   3.008   2.991   2.957   3.017   2.902   3.086   3.237   3.307   3.352   3.142   3.060   2.933   2.997   2.961   2.903   2.802   2.712   2.702   2.636   2.822   2.851   2.940   2.921
   181.00    3.014   2.922   2.776   2.799   2.742   2.601   2.669   2.724   2.711   2.812   2.883   2.973   3.043   2.966   3.031   2.810   2.903   3.119   3.118   3.228   3.183   2.933   2.870   3.083   2.961   2.874   2.977   2.964   2.823   2.845   2.745   2.660   2.693   2.750   2.619   2.838
   172.43    3.034   2.874   2.784   2.829   2.801   2.638   2.531   2.720   2.755   2.816   2.894   2.909   3.008   2.895   2.985   3.021   3.033   3.137   3.226   3.163   2.987   2.836   2.783   3.062   3.033   2.841   2.944   2.971   2.678   2.633   2.633   2.736   2.783   2.687   2.568   2.740
   163.86    2.888   2.805   2.745   2.766   2.706   2.746   2.568   2.581   2.584   2.727   2.739   2.803   2.834   2.939   2.973   2.998   3.014   3.107   3.072   3.079   2.951   2.932   2.859   2.836   2.880   2.739   2.983   2.948   2.790   2.675   2.736   2.726   2.616   2.730   2.572   2.674
   155.29    2.799   2.846   2.849   2.739   2.845   2.905   2.765   2.553   2.557   2.709   2.801   2.786   2.613   2.723   2.938   3.050   2.980   2.969   3.078   3.077   2.863   2.706   2.692   2.684   2.793   2.700   2.802   2.815   2.819   2.797   2.698   2.630   2.632   2.632   2.700   2.625
   146.71    2.865   2.773   2.908   2.799   3.112   3.070   2.895   2.692   2.833   2.862   2.751   2.700   2.646   2.605   2.806   2.959   3.028   3.042   3.133   2.999   2.847   2.717   2.768   2.692   2.682   2.515   2.517   2.767   2.706   2.892   2.847   2.750   2.634   2.736   2.603   2.540
   138.14    3.018   2.763   2.905   2.861   2.955   2.874   2.852   2.789   2.768   2.785   2.803   2.671   2.518   2.629   2.752   2.821   2.904   2.882   2.893   2.754   2.775   2.801   2.813   2.709   2.655   2.502   2.501   2.627   2.617   2.864   2.849   2.800   2.741   2.734   2.762   2.730
   129.57    3.158   2.988   2.906   2.866   2.896   2.781   2.750   2.848   2.833   2.810   2.743   2.664   2.492   2.597   2.606   2.984   2.841   2.861   2.767   2.705   2.729   2.848   2.751   2.698   2.738   2.762   2.679   2.611   2.608   2.728   2.940   2.860   2.733   2.649   2.785   2.796
   121.00    3.248   3.217   3.075   2.952   2.942   2.617   2.666   2.524   2.793   2.766   2.832   2.600   2.727   2.711   2.755   2.887   2.935   2.762   2.792   2.718   2.742   2.722   2.741   2.723   2.706   2.706   2.680   2.607   2.659   2.562   2.763   2.806   2.740   2.651   2.713   2.785
   112.43    3.292   3.218   3.264   3.093   2.761   2.724   2.701   2.499   2.789   2.732   2.624   2.720   2.751   2.721   2.784   2.742   2.840   2.942   2.853   2.714   2.718   2.700   2.702   2.726   2.663   2.614   2.631   2.643   2.687   2.521   2.670   2.759   2.779   2.672   2.774   2.712
   103.86    3.176   3.298   3.459   3.225   2.880   2.716   2.659   2.584   2.632   2.824   2.852   2.718   2.765   2.789   2.704   2.810   2.673   2.780   2.615   2.726   2.644   2.587   2.731   2.897   2.712   2.658   2.741   2.771   2.847   2.863   2.851   2.753   2.829   2.777   2.826   2.765
    95.29    3.410   3.417   3.441   3.197   2.950   2.820   2.814   2.710   2.561   2.679   2.792   2.728   2.851   2.733   2.731   2.860   2.742   2.665   2.564   2.597   2.640   2.645   2.826   2.966   2.866   2.921   2.951   2.863   2.992   2.999   2.965   2.906   2.899   2.838   2.987   2.941
    86.71    3.341   3.404   3.323   3.191   2.983   3.046   2.885   2.755   2.601   2.561   2.629   2.808   2.820   2.686   2.628   2.758   2.731   2.732   2.647   2.530   2.666   2.697   2.882   2.918   2.977   3.096   3.150   2.915   2.840   2.923   2.965   2.981   2.962   2.997   2.993   3.103
    78.14    3.164   3.208   3.180   3.129   3.208   3.001   2.909   2.585   2.632   2.639   2.736   2.691   2.765   2.618   2.564   2.636   2.743   2.819   2.646   2.692   2.804   2.886   2.915   3.027   3.024   3.053   3.097   3.046   2.920   3.109   3.096   3.111   3.121   3.119   3.065   3.157
    69.57    3.082   3.128   2.962   2.967   3.187   3.094   2.783   2.677   2.779   2.598   2.676   2.791   2.520   2.526   2.541   2.572   2.749   2.776   2.894   2.871   3.056   3.055   3.123   3.294   3.324   3.162   2.927   2.839   3.012   3.053   2.951   2.927   3.078   3.093   3.238   3.170
    61.00    3.068   3.112   3.182   3.317   3.048   3.022   2.737   2.878   2.756   2.920   2.830   2.797   2.725   2.640   2.661   2.571   2.725   2.847   2.795   3.051   3.115   3.059   3.280   3.395   3.268   3.338   3.204   3.169   3.169   3.138   3.007   2.933   3.108   3.202   3.285   3.266
    52.43    3.131   3.212   3.364   3.225   3.104   2.879   2.866   2.911   2.810   2.820   2.884   3.054   2.926   2.911   2.794   2.767   2.789   2.825   3.043   3.101   3.116   3.066   3.295   3.351   3.351   3.435   3.424   3.142   2.902   3.088   3.099   3.052   3.203   3.190   3.045   3.183
    43.86    3.273   3.230   3.160   3.077   2.976   2.938   2.848   2.766   2.787   2.741   2.854   2.882   2.913   2.935   2.815   2.724   2.857   2.890   2.989   3.161   3.033   3.083   3.264   3.359   3.432   3.465   3.333   2.972   2.930   3.063   3.048   2.895   2.988   3.196   2.913   3.114
    35.29    3.130   2.989   2.944   2.976   3.070   2.990   2.787   2.829   2.839   2.825   2.846   2.946   2.885   2.772   2.809   2.740   2.835   2.821   2.999   3.093   3.136   3.169   3.113   3.151   3.167   3.266   3.177   3.023   3.062   3.030   2.929   2.931   3.002   3.110   3.111   3.024
    26.71    3.120   3.122   2.977   2.994   2.931   2.857   2.806   2.847   2.710   2.766   2.745   2.872   2.753   2.728   2.771   2.990   2.941   3.023   2.911   2.866   2.998   3.070   3.038   2.898   3.033   3.347   3.346   3.040   2.963   2.858   2.919   3.011   2.949   3.117   3.035   2.975
    18.14    3.014   2.923   2.836   2.915   2.943   2.768   2.918   3.016   3.025   2.987   3.049   3.040   2.849   2.760   2.781   2.926   2.836   2.818   2.767   2.842   2.914   3.119   3.136   2.792   3.041   3.113   3.248   3.175   3.043   2.840   2.935   2.939   2.962   2.935   2.992   2.988
     9.57    2.926   2.953   2.757   2.864   2.794   2.708   2.857   3.003   3.055   2.959   3.048   3.116   3.128   2.991   2.977   2.898   2.829   2.853   2.754   2.696   2.889   3.109   2.942   2.829   2.901   3.046   3.153   2.977   2.950   2.851   2.952   2.862   2.875   2.848   2.859   3.002
     1.00    2.987   2.907   2.783   2.953   2.808   2.826   2.961   2.924   2.968   2.942   3.021   3.039   3.079   3.099   3.032   2.996   2.793   2.926   2.747   2.824   2.891   3.043   3.040   2.994   2.883   2.994   3.215   3.046   2.952   2.864   2.994   2.989   3.153   2.966   3.077   3.050

   Height   Standard deviation at grid points for the v component:
   301.00    2.997   2.997   2.997   2.997   2.997   2.997   2.997   2.997   2.997   2.997   2.997   2.997   2.997   2.997   2.997   2.997   2.997   2.997   2.997   2.997   2.997   2.997   2.997   2.997   2.997   2.997   2.997   2.997   2.997   2.997   2.997   2.997   2.997   2.997   2.997   2.997
   292.43    2.997   2.997   2.997   2.997   2.997   2.997   2.997   2.997   2.997   2.997   2.997   2.997   2.997   2.997   2.997   2.997   2.997   2.997   2.997   2.997   2.997   2.997   2.997   2.997   2.997   2.997   2.997   2.997   2.997   2.997   2.997   2.997   2.997   2.997   2.997   2.997
   283.86    2.997   2.997   2.997   2.997   2.997   2.997   2.997   2.997   2.997   2.997   2.997   2.997   2.997   2.997   2.997   2.997   2.997   2.997   2.997   2.997   2.997   2.997   2.997   2.997   2.997   2.997   2.997   2.997   2.997   2.997   2.997   2.997   2.997   2.997   2.997   2.997
   275.29    2.997   2.997   2.997   2.997   2.997   2.997   2.997   2.997   2.997   2.997   2.997   2.997   2.997   2.997   2.997   2.997   2.997   2.997   2.997   2.997   2.997   2.997   2.997   2.997   2.997   2.997   2.997   2.997   2.997   2.997   2.997   2.997   2.997   2.997   2.997   2.997
   266.71    2.997   2.997   2.997   2.997   2.997   2.997   2.997   2.997   2.997   2.997   2.997   2.997   2.997   2.997   2.997   2.997   2.997   2.997   2.997   2.997   2.997   2.997   2.997   2.997   2.997   2.997   2.997   2.997   2.997   2.997   2.997   2.997   2.997   2.997   2.997   2.997
   258.14    2.997   2.997   2.997   2.997   2.997   2.997   2.997   2.997   2.997   2.997   2.997   2.997   2.997   2.997   2.997   2.997   2.997   2.997   2.997   2.997   2.997   2.997   2.997   2.997   2.997   2.997   2.997   2.997   2.997   2.997   2.997   2.997   2.997   2.997   2.997   2.997
   249.57    2.997   2.997   2.997   2.997   2.997   2.997   2.997   2.997   2.997   2.997   2.997   2.997   2.997   2.997   2.997   2.997   2.997   2.997   2.997   2.997   2.997   2.997   2.997   2.997   2.997   2.997   2.997   2.997   2.997   2.997   2.997   2.997   2.997   2.997   2.997   2.997
   241.00    2.997   2.997   2.997   2.997   2.997   2.997   2.997   2.997   2.997   2.997   2.997   2.997   2.997   2.997   2.997   2.997   2.997   2.997   2.997   2.997   2.997   2.997   2.997   2.997   2.997   2.997   2.997   2.997   2.997   2.997   2.997   2.997   2.997   2.997   2.997   2.997
   232.43    2.997   2.997   2.997   2.997   2.997   2.997   2.997   2.997   2.997   2.997   2.997   2.997   2.997   2.997   2.997   2.997   2.997   2.997   2.997   2.997   2.997   2.997   2.997   2.997   2.997   2.997   2.997   2.997   2.997   2.997   2.997   2.997   2.997   2.997   2.997   2.997
   223.86    2.997   2.997   2.997   2.997   2.997   2.997   2.997   2.997   2.997   2.997   2.997   2.997   2.997   2.997   2.997   2.997   2.997   2.997   2.997   2.997   2.997   2.997   2.997   2.997   2.997   2.997   2.997   2.997   2.997   2.997   2.997   2.997   2.997   2.997   2.997   2.997
   215.29    2.997   2.997   2.997   2.997   2.997   2.997   2.997   2.997   2.997   2.997   2.997   2.997   2.997   2.997   2.997   2.997   2.997   2.997   2.997   2.997   2.997   2.997   2.997   2.997   2.997   2.997   2.997   2.997   2.997   2.997   2.997   2.997   2.997   2.997   2.997   2.997
   206.71    2.997   2.997   2.997   2.997   2.997   2.997   2.997   2.997   2.997   2.997   2.997   2.997   2.997   2.997   2.997   2.997   2.997   2.997   2.997   2.997   2.997   2.997   2.997   2.997   2.997   2.997   2.997   2.997   2.997   2.997   2.997   2.997   2.997   2.997   2.997   2.997
   198.14    2.997   2.997   2.997   2.997   2.997   2.997   2.997   2.997   2.997   2.997   2.997   2.997   2.997   2.997   2.997   2.997   2.997   2.997   2.997   2.997   2.997   2.997   2.997   2.997   2.997   2.997   2.997   2.997   2.997   2.997   2.997   2.997   2.997   2.997   2.997   2.997
   189.57    2.997   2.997   2.997   2.997   2.997   2.997   2.997   2.997   2.997   2.997   2.997   2.997   2.997   2.997   2.997   2.997   2.997   2.997   2.997   2.997   2.997   2.997   2.997   2.997   2.997   2.997   2.997   2.997   2.997   2.997   2.997   2.997   2.997   2.997   2.997   2.997
   181.00    2.997   2.997   2.997   2.997   2.997   2.997   2.997   2.997   2.997   2.997   2.997   2.997   2.997   2.997   2.997   2.997   2.997   2.997   2.997   2.997   2.997   2.997   2.997   2.997   2.997   2.997   2.997   2.997   2.997   2.997   2.997   2.997   2.997   2.997   2.997   2.997
   172.43    2.997   2.997   2.997   2.997   2.997   2.997   2.997   2.997   2.997   2.997   2.997   2.997   2.997   2.997   2.997   2.997   2.997   2.997   2.997   2.997   2.997   2.997   2.997   2.997   2.997   2.997   2.997   2.997   2.997   2.997   2.997   2.997   2.997   2.997   2.997   2.997
   163.86    2.997   2.997   2.997   2.997   2.997   2.997   2.997   2.997   2.997   2.997   2.997   2.997   2.997   2.997   2.997   2.997   2.997   2.997   2.997   2.997   2.997   2.997   2.997   2.997   2.997   2.997   2.997   2.997   2.997   2.997   2.997   2.997   2.997   2.997   2.997   2.997
   155.29    2.997   2.997   2.997   2.997   2.997   2.997   2.997   2.997   2.997   2.997   2.997   2.997   2.997   2.997   2.997   2.997   2.997   2.997   2.997   2.997   2.997   2.997   2.997   2.997   2.997   2.997   2.997   2.997   2.997   2.997   2.997   2.997   2.997   2.997   2.997   2.997
   146.71    2.997   2.997   2.997   2.997   2.997   2.997   2.997   2.997   2.997   2.997   2.997   2.997   2.997   2.997   2.997   2.997   2.997   2.997   2.997   2.997   2.997   2.997   2.997   2.997   2.997   2.997   2.997   2.997   2.997   2.997   2.997   2.997   2.997   2.997   2.997   2.997
   138.14    2.997   2.997   2.997   2.997   2.997   2.997   2.997   2.997   2.997   2.997   2.997   2.997   2.997   2.997   2.997   2.997   2.997   2.997   2.997   2.997   2.997   2.997   2.997   2.997   2.997   2.997   2.997   2.997   2.997   2.997   2.997   2.997   2.997   2.997   2.997   2.997
   129.57    2.997   2.997   2.997   2.997   2.997   2.997   2.997   2.997   2.997   2.997   2.997   2.997   2.997   2.997   2.997   2.997   2.997   2.997   2.997   2.997   2.997   2.997   2.997   2.997   2.997   2.997   2.997   2.997   2.997   2.997   2.997   2.997   2.997   2.997   2.997   2.997
   121.00    2.997   2.997   2.997   2.997   2.997   2.997   2.997   2.997   2.997   2.997   2.997   2.997   2.997   2.997   2.997   2.997   2.997   2.997   2.997   2.997   2.997   2.997   2.997   2.997   2.997   2.997   2.997   2.997   2.997   2.997   2.997   2.997   2.997   2.997   2.997   2.997
   112.43    2.997   2.997   2.997   2.997   2.997   2.997   2.997   2.997   2.997   2.997   2.997   2.997   2.997   2.997   2.997   2.997   2.997   2.997   2.997   2.997   2.997   2.997   2.997   2.997   2.997   2.997   2.997   2.997   2.997   2.997   2.997   2.997   2.997   2.997   2.997   2.997
   103.86    2.997   2.997   2.997   2.997   2.997   2.997   2.997   2.997   2.997   2.997   2.997   2.997   2.997   2.997   2.997   2.997   2.997   2.997   2.997   2.997   2.997   2.997   2.997   2.997   2.997   2.997   2.997   2.997   2.997   2.997   2.997   2.997   2.997   2.997   2.997   2.997
    95.29    2.997   2.997   2.997   2.997   2.997   2.997   2.997   2.997   2.997   2.997   2.997   2.997   2.997   2.997   2.997   2.997   2.997   2.997   2.997   2.997   2.997   2.997   2.997   2.997   2.997   2.997   2.997   2.997   2.997   2.997   2.997   2.997   2.997   2.997   2.997   2.997
    86.71    2.997   2.997   2.997   2.997   2.997   2.997   2.997   2.997   2.997   2.997   2.997   2.997   2.997   2.997   2.997   2.997   2.997   2.997   2.997   2.997   2.997   2.997   2.997   2.997   2.997   2.997   2.997   2.997   2.997   2.997   2.997   2.997   2.997   2.997   2.997   2.997
    78.14    2.997   2.997   2.997   2.997   2.997   2.997   2.997   2.997   2.997   2.997   2.997   2.997   2.997   2.997   2.997   2.997   2.997   2.997   2.997   2.997   2.997   2.997   2.997   2.997   2.997   2.997   2.997   2.997   2.997   2.997   2.997   2.997   2.997   2.997   2.997   2.997
    69.57    2.997   2.997   2.997   2.997   2.997   2.997   2.997   2.997   2.997   2.997   2.997   2.997   2.997   2.997   2.997   2.997   2.997   2.997   2.997   2.997   2.997   2.997   2.997   2.997   2.997   2.997   2.997   2.997   2.997   2.997   2.997   2.997   2.997   2.997   2.997   2.997
    61.00    2.997   2.997   2.997   2.997   2.997   2.997   2.997   2.997   2.997   2.997   2.997   2.997   2.997   2.997   2.997   2.997   2.997   2.997   2.997   2.997   2.997   2.997   2.997   2.997   2.997   2.997   2.997   2.997   2.997   2.997   2.997   2.997   2.997   2.997   2.997   2.997
    52.43    2.997   2.997   2.997   2.997   2.997   2.997   2.997   2.997   2.997   2.997   2.997   2.997   2.997   2.997   2.997   2.997   2.997   2.997   2.997   2.997   2.997   2.997   2.997   2.997   2.997   2.997   2.997   2.997   2.997   2.997   2.997   2.997   2.997   2.997   2.997   2.997
    43.86    2.997   2.997   2.997   2.997   2.997   2.997   2.997   2.997   2.997   2.997   2.997   2.997   2.997   2.997   2.997   2.997   2.997   2.997   2.997   2.997   2.997   2.997   2.997   2.997   2.997   2.997   2.997   2.997   2.997   2.997   2.997   2.997   2.997   2.997   2.997   2.997
    35.29    2.997   2.997   2.997   2.997   2.997   2.997   2.997   2.997   2.997   2.997   2.997   2.997   2.997   2.997   2.997   2.997   2.997   2.997   2.997   2.997   2.997   2.997   2.997   2.997   2.997   2.997   2.997   2.997   2.997   2.997   2.997   2.997   2.997   2.997   2.997   2.997
    26.71    2.997   2.997   2.997   2.997   2.997   2.997   2.997   2.997   2.997   2.997   2.997   2.997   2.997   2.997   2.997   2.997   2.997   2.997   2.997   2.997   2.997   2.997   2.997   2.997   2.997   2.997   2.997   2.997   2.997   2.997   2.997   2.997   2.997   2.997   2.997   2.997
    18.14    2.997   2.997   2.997   2.997   2.997   2.997   2.997   2.997   2.997   2.997   2.997   2.997   2.997   2.997   2.997   2.997   2.997   2.997   2.997   2.997   2.997   2.997   2.997   2.997   2.997   2.997   2.997   2.997   2.997   2.997   2.997   2.997   2.997   2.997   2.997   2.997
     9.57    2.997   2.997   2.997   2.997   2.997   2.997   2.997   2.997   2.997   2.997   2.997   2.997   2.997   2.997   2.997   2.997   2.997   2.997   2.997   2.997   2.997   2.997   2.997   2.997   2.997   2.997   2.997   2.997   2.997   2.997   2.997   2.997   2.997   2.997   2.997   2.997
     1.00    2.997   2.997   2.997   2.997   2.997   2.997   2.997   2.997   2.997   2.997   2.997   2.997   2.997   2.997   2.997   2.997   2.997   2.997   2.997   2.997   2.997   2.997   2.997   2.997   2.997   2.997   2.997   2.997   2.997   2.997   2.997   2.997   2.997   2.997   2.997   2.997

   Height   Standard deviation at grid points for the w component:
   301.00    2.997   2.997   2.997   2.997   2.997   2.997   2.997   2.997   2.997   2.997   2.997   2.997   2.997   2.997   2.997   2.997   2.997   2.997   2.997   2.997   2.997   2.997   2.997   2.997   2.997   2.997   2.997   2.997   2.997   2.997   2.997   2.997   2.997   2.997   2.997   2.997
   292.43    2.997   2.997   2.997   2.997   2.997   2.997   2.997   2.997   2.997   2.997   2.997   2.997   2.997   2.997   2.997   2.997   2.997   2.997   2.997   2.997   2.997   2.997   2.997   2.997   2.997   2.997   2.997   2.997   2.997   2.997   2.997   2.997   2.997   2.997   2.997   2.997
   283.86    2.997   2.997   2.997   2.997   2.997   2.997   2.997   2.997   2.997   2.997   2.997   2.997   2.997   2.997   2.997   2.997   2.997   2.997   2.997   2.997   2.997   2.997   2.997   2.997   2.997   2.997   2.997   2.997   2.997   2.997   2.997   2.997   2.997   2.997   2.997   2.997
   275.29    2.997   2.997   2.997   2.997   2.997   2.997   2.997   2.997   2.997   2.997   2.997   2.997   2.997   2.997   2.997   2.997   2.997   2.997   2.997   2.997   2.997   2.997   2.997   2.997   2.997   2.997   2.997   2.997   2.997   2.997   2.997   2.997   2.997   2.997   2.997   2.997
   266.71    2.997   2.997   2.997   2.997   2.997   2.997   2.997   2.997   2.997   2.997   2.997   2.997   2.997   2.997   2.997   2.997   2.997   2.997   2.997   2.997   2.997   2.997   2.997   2.997   2.997   2.997   2.997   2.997   2.997   2.997   2.997   2.997   2.997   2.997   2.997   2.997
   258.14    2.997   2.997   2.997   2.997   2.997   2.997   2.997   2.997   2.997   2.997   2.997   2.997   2.997   2.997   2.997   2.997   2.997   2.997   2.997   2.997   2.997   2.997   2.997   2.997   2.997   2.997   2.997   2.997   2.997   2.997   2.997   2.997   2.997   2.997   2.997   2.997
   249.57    2.997   2.997   2.997   2.997   2.997   2.997   2.997   2.997   2.997   2.997   2.997   2.997   2.997   2.997   2.997   2.997   2.997   2.997   2.997   2.997   2.997   2.997   2.997   2.997   2.997   2.997   2.997   2.997   2.997   2.997   2.997   2.997   2.997   2.997   2.997   2.997
   241.00    2.997   2.997   2.997   2.997   2.997   2.997   2.997   2.997   2.997   2.997   2.997   2.997   2.997   2.997   2.997   2.997   2.997   2.997   2.997   2.997   2.997   2.997   2.997   2.997   2.997   2.997   2.997   2.997   2.997   2.997   2.997   2.997   2.997   2.997   2.997   2.997
   232.43    2.997   2.997   2.997   2.997   2.997   2.997   2.997   2.997   2.997   2.997   2.997   2.997   2.997   2.997   2.997   2.997   2.997   2.997   2.997   2.997   2.997   2.997   2.997   2.997   2.997   2.997   2.997   2.997   2.997   2.997   2.997   2.997   2.997   2.997   2.997   2.997
   223.86    2.997   2.997   2.997   2.997   2.997   2.997   2.997   2.997   2.997   2.997   2.997   2.997   2.997   2.997   2.997   2.997   2.997   2.997   2.997   2.997   2.997   2.997   2.997   2.997   2.997   2.997   2.997   2.997   2.997   2.997   2.997   2.997   2.997   2.997   2.997   2.997
   215.29    2.997   2.997   2.997   2.997   2.997   2.997   2.997   2.997   2.997   2.997   2.997   2.997   2.997   2.997   2.997   2.997   2.997   2.997   2.997   2.997   2.997   2.997   2.997   2.997   2.997   2.997   2.997   2.997   2.997   2.997   2.997   2.997   2.997   2.997   2.997   2.997
   206.71    2.997   2.997   2.997   2.997   2.997   2.997   2.997   2.997   2.997   2.997   2.997   2.997   2.997   2.997   2.997   2.997   2.997   2.997   2.997   2.997   2.997   2.997   2.997   2.997   2.997   2.997   2.997   2.997   2.997   2.997   2.997   2.997   2.997   2.997   2.997   2.997
   198.14    2.997   2.997   2.997   2.997   2.997   2.997   2.997   2.997   2.997   2.997   2.997   2.997   2.997   2.997   2.997   2.997   2.997   2.997   2.997   2.997   2.997   2.997   2.997   2.997   2.997   2.997   2.997   2.997   2.997   2.997   2.997   2.997   2.997   2.997   2.997   2.997
   189.57    2.997   2.997   2.997   2.997   2.997   2.997   2.997   2.997   2.997   2.997   2.997   2.997   2.997   2.997   2.997   2.997   2.997   2.997   2.997   2.997   2.997   2.997   2.997   2.997   2.997   2.997   2.997   2.997   2.997   2.997   2.997   2.997   2.997   2.997   2.997   2.997
   181.00    2.997   2.997   2.997   2.997   2.997   2.997   2.997   2.997   2.997   2.997   2.997   2.997   2.997   2.997   2.997   2.997   2.997   2.997   2.997   2.997   2.997   2.997   2.997   2.997   2.997   2.997   2.997   2.997   2.997   2.997   2.997   2.997   2.997   2.997   2.997   2.997
   172.43    2.997   2.997   2.997   2.997   2.997   2.997   2.997   2.997   2.997   2.997   2.997   2.997   2.997   2.997   2.997   2.997   2.997   2.997   2.997   2.997   2.997   2.997   2.997   2.997   2.997   2.997   2.997   2.997   2.997   2.997   2.997   2.997   2.997   2.997   2.997   2.997
   163.86    2.997   2.997   2.997   2.997   2.997   2.997   2.997   2.997   2.997   2.997   2.997   2.997   2.997   2.997   2.997   2.997   2.997   2.997   2.997   2.997   2.997   2.997   2.997   2.997   2.997   2.997   2.997   2.997   2.997   2.997   2.997   2.997   2.997   2.997   2.997   2.997
   155.29    2.997   2.997   2.997   2.997   2.997   2.997   2.997   2.997   2.997   2.997   2.997   2.997   2.997   2.997   2.997   2.997   2.997   2.997   2.997   2.997   2.997   2.997   2.997   2.997   2.997   2.997   2.997   2.997   2.997   2.997   2.997   2.997   2.997   2.997   2.997   2.997
   146.71    2.997   2.997   2.997   2.997   2.997   2.997   2.997   2.997   2.997   2.997   2.997   2.997   2.997   2.997   2.997   2.997   2.997   2.997   2.997   2.997   2.997   2.997   2.997   2.997   2.997   2.997   2.997   2.997   2.997   2.997   2.997   2.997   2.997   2.997   2.997   2.997
   138.14    2.997   2.997   2.997   2.997   2.997   2.997   2.997   2.997   2.997   2.997   2.997   2.997   2.997   2.997   2.997   2.997   2.997   2.997   2.997   2.997   2.997   2.997   2.997   2.997   2.997   2.997   2.997   2.997   2.997   2.997   2.997   2.997   2.997   2.997   2.997   2.997
   129.57    2.997   2.997   2.997   2.997   2.997   2.997   2.997   2.997   2.997   2.997   2.997   2.997   2.997   2.997   2.997   2.997   2.997   2.997   2.997   2.997   2.997   2.997   2.997   2.997   2.997   2.997   2.997   2.997   2.997   2.997   2.997   2.997   2.997   2.997   2.997   2.997
   121.00    2.997   2.997   2.997   2.997   2.997   2.997   2.997   2.997   2.997   2.997   2.997   2.997   2.997   2.997   2.997   2.997   2.997   2.997   2.997   2.997   2.997   2.997   2.997   2.997   2.997   2.997   2.997   2.997   2.997   2.997   2.997   2.997   2.997   2.997   2.997   2.997
   112.43    2.997   2.997   2.997   2.997   2.997   2.997   2.997   2.997   2.997   2.997   2.997   2.997   2.997   2.997   2.997   2.997   2.997   2.997   2.997   2.997   2.997   2.997   2.997   2.997   2.997   2.997   2.997   2.997   2.997   2.997   2.997   2.997   2.997   2.997   2.997   2.997
   103.86    2.997   2.997   2.997   2.997   2.997   2.997   2.997   2.997   2.997   2.997   2.997   2.997   2.997   2.997   2.997   2.997   2.997   2.997   2.997   2.997   2.997   2.997   2.997   2.997   2.997   2.997   2.997   2.997   2.997   2.997   2.997   2.997   2.997   2.997   2.997   2.997
    95.29    2.997   2.997   2.997   2.997   2.997   2.997   2.997   2.997   2.997   2.997   2.997   2.997   2.997   2.997   2.997   2.997   2.997   2.997   2.997   2.997   2.997   2.997   2.997   2.997   2.997   2.997   2.997   2.997   2.997   2.997   2.997   2.997   2.997   2.997   2.997   2.997
    86.71    2.997   2.997   2.997   2.997   2.997   2.997   2.997   2.997   2.997   2.997   2.997   2.997   2.997   2.997   2.997   2.997   2.997   2.997   2.997   2.997   2.997   2.997   2.997   2.997   2.997   2.997   2.997   2.997   2.997   2.997   2.997   2.997   2.997   2.997   2.997   2.997
    78.14    2.997   2.997   2.997   2.997   2.997   2.997   2.997   2.997   2.997   2.997   2.997   2.997   2.997   2.997   2.997   2.997   2.997   2.997   2.997   2.997   2.997   2.997   2.997   2.997   2.997   2.997   2.997   2.997   2.997   2.997   2.997   2.997   2.997   2.997   2.997   2.997
    69.57    2.997   2.997   2.997   2.997   2.997   2.997   2.997   2.997   2.997   2.997   2.997   2.997   2.997   2.997   2.997   2.997   2.997   2.997   2.997   2.997   2.997   2.997   2.997   2.997   2.997   2.997   2.997   2.997   2.997   2.997   2.997   2.997   2.997   2.997   2.997   2.997
    61.00    2.997   2.997   2.997   2.997   2.997   2.997   2.997   2.997   2.997   2.997   2.997   2.997   2.997   2.997   2.997   2.997   2.997   2.997   2.997   2.997   2.997   2.997   2.997   2.997   2.997   2.997   2.997   2.997   2.997   2.997   2.997   2.997   2.997   2.997   2.997   2.997
    52.43    2.997   2.997   2.997   2.997   2.997   2.997   2.997   2.997   2.997   2.997   2.997   2.997   2.997   2.997   2.997   2.997   2.997   2.997   2.997   2.997   2.997   2.997   2.997   2.997   2.997   2.997   2.997   2.997   2.997   2.997   2.997   2.997   2.997   2.997   2.997   2.997
    43.86    2.997   2.997   2.997   2.997   2.997   2.997   2.997   2.997   2.997   2.997   2.997   2.997   2.997   2.997   2.997   2.997   2.997   2.997   2.997   2.997   2.997   2.997   2.997   2.997   2.997   2.997   2.997   2.997   2.997   2.997   2.997   2.997   2.997   2.997   2.997   2.997
    35.29    2.997   2.997   2.997   2.997   2.997   2.997   2.997   2.997   2.997   2.997   2.997   2.997   2.997   2.997   2.997   2.997   2.997   2.997   2.997   2.997   2.997   2.997   2.997   2.997   2.997   2.997   2.997   2.997   2.997   2.997   2.997   2.997   2.997   2.997   2.997   2.997
    26.71    2.997   2.997   2.997   2.997   2.997   2.997   2.997   2.997   2.997   2.997   2.997   2.997   2.997   2.997   2.997   2.997   2.997   2.997   2.997   2.997   2.997   2.997   2.997   2.997   2.997   2.997   2.997   2.997   2.997   2.997   2.997   2.997   2.997   2.997   2.997   2.997
    18.14    2.997   2.997   2.997   2.997   2.997   2.997   2.997   2.997   2.997   2.997   2.997   2.997   2.997   2.997   2.997   2.997   2.997   2.997   2.997   2.997   2.997   2.997   2.997   2.997   2.997   2.997   2.997   2.997   2.997   2.997   2.997   2.997   2.997   2.997   2.997   2.997
     9.57    2.997   2.997   2.997   2.997   2.997   2.997   2.997   2.997   2.997   2.997   2.997   2.997   2.997   2.997   2.997   2.997   2.997   2.997   2.997   2.997   2.997   2.997   2.997   2.997   2.997   2.997   2.997   2.997   2.997   2.997   2.997   2.997   2.997   2.997   2.997   2.997
     1.00    2.997   2.997   2.997   2.997   2.997   2.997   2.997   2.997   2.997   2.997   2.997   2.997   2.997   2.997   2.997   2.997   2.997   2.997   2.997   2.997   2.997   2.997   2.997   2.997   2.997   2.997   2.997   2.997   2.997   2.997   2.997   2.997   2.997   2.997   2.997   2.997

   Mean standard deviation across all grid points:
      u component:    2.899 m/s
      v component:    2.997 m/s
      w component:    2.997 m/s


U-component (X) statistics from the interpolated hub point:

   Mean =  17.9515 m/s
   TI   =  15.2400 %


Normalizing Parameters for Binary Data (approximate statistics):

   UBar  =  17.9527 m/s
   TI(u) =  17.1780 %
   TI(v) =  16.6941 %
   TI(w) =  16.6941 %

   Height Offset =   0.0000 m
   Grid Base     =   1.0000 m

Creating a PERIODIC output file.


Processing complete.  116.72 CPU seconds used.
