
This summary file was generated by TurbSim (v2.00.07a-bjj, 14-Jun-2016) on 03-Nov-2023 at 03:24:15.


Runtime Options:

      5201  Random seed #1
    RANLUX  Type of random number generator
         F  Output binary HH turbulence parameters?
         F  Output formatted turbulence parameters?
         F  Output AeroDyn HH files?
         F  Output AeroDyn FF files?
         T  Output BLADED FF files?
         F  Output tower data?
         F  Output formatted FF files?
         F  Output coherent turbulence time step file?
         T  Clockwise rotation when looking downwind?
 0 -  NONE  IEC turbulence models scaled to exact specified standard deviation


Turbine/Model Specifications:

        36  Vertical grid-point matrix dimension
        36  Horizontal grid-point matrix dimension
     0.100  Time step [seconds]
   660.000  Analysis time [seconds]
   660.000  Usable output time [seconds]
   151.000  Hub height [m]
   300.000  Grid height [m]
   300.000  Grid width [m]
     0.000  Vertical flow angle [degrees]
     0.000  Horizontal flow angle [degrees]


Meteorological Boundary Conditions:

    IECVKM  IEC von Karman spectral model
         1  IEC standard: IEC 61400-1 Ed. 3: 2005
         A  IEC turbulence characteristic
       NTM  IEC Normal Turbulence Model
       N/A  IEC Extreme Turbulence Model (ETM) "c" parameter [m/s]
       PL   Wind profile type
   153.000  Reference height [m]
    22.000  Reference wind speed [m/s]
       N/A  Jet height [m]
     0.200  Power law exponent
     0.030  Surface roughness length [m]


Non-IEC Meteorological Boundary Conditions:

       N/A  Site latitude [degrees]
       N/A  Gradient Richardson number
       N/A  Friction or shear velocity [m/s]
       N/A  Mixing layer depth [m]
       N/A  Mean hub u'w' Reynolds stress
       N/A  Mean hub u'v' Reynolds stress
       N/A  Mean hub v'w' Reynolds stress


Spatial Coherence Models:

       IEC  u-component coherence model
      NONE  v-component coherence model
      NONE  w-component coherence model
(   12.000, 0.353E-03)  u-component coherence parameters
                   N/A  v-component coherence parameters
                   N/A  w-component coherence parameters
       N/A  Coherence exponent


You have requested that the following file(s) be generated:

   G:\2023\OpenWECDV1.0.0_x64\BaseLIne\wind\WindL_V_22_seed_5201.wnd (AeroDyn/BLADED full-field wnd file)


Turbulence Simulation Scaling Parameter Summary:

   Turbulence model used                            =  IEC von Karman
   Turbulence characteristic                        =  A
   IEC turbulence type                              =  Normal Turbulence Model
   IEC standard                                     =  IEC 61400-1 Ed. 3: 2005
   Mean wind speed at hub height                    =   21.942 m/s
   Expected value of turbulence intensity at 15 m/s =   16.000%
   Characteristic value of standard deviation       =    3.529 m/s
   Turbulence scale                                 =   42.000 m
   Isotropic integral scale                         =  147.000 m
   Characteristic value of hub turbulence intensity =   16.083%
   Gradient Richardson number                       =    0.000

   Wind profile type                                =  Power law
   Power law exponent                               =    0.200
   Mean shear across rotor disk                     =    0.057 (m/s)/m
   Assumed rotor diameter                           =  300.000 m
   Surface roughness length                         =    0.030 m

   Nyquist frequency of turbulent wind field        =    5.000 Hz

   Number of time steps in the FFT                  =     6600
   Number of time steps output                      =     6600
   Number of points simulated                       =     1297


Mean Flow Angles:

   Vertical   =   0.0 degrees
   Horizontal =   0.0 degrees

Mean Wind Speed Profile:

   Height    Wind Speed   Horizontal Angle  Vertical Angle  U-comp (X)   V-comp (Y)   W-comp (Z)
     (m)        (m/s)         (degrees)       (degrees)       (m/s)        (m/s)        (m/s)   
   ------    ----------   ----------------  --------------  ----------   ----------   ----------
    301.0       25.19            0.00            0.00         25.19         0.00         0.00
    292.4       25.04            0.00            0.00         25.04         0.00         0.00
    283.9       24.89            0.00            0.00         24.89         0.00         0.00
    275.3       24.74            0.00            0.00         24.74         0.00         0.00
    266.7       24.59            0.00            0.00         24.59         0.00         0.00
    258.1       24.43            0.00            0.00         24.43         0.00         0.00
    249.6       24.26            0.00            0.00         24.26         0.00         0.00
    241.0       24.09            0.00            0.00         24.09         0.00         0.00
    232.4       23.92            0.00            0.00         23.92         0.00         0.00
    223.9       23.74            0.00            0.00         23.74         0.00         0.00
    215.3       23.56            0.00            0.00         23.56         0.00         0.00
    206.7       23.36            0.00            0.00         23.36         0.00         0.00
    198.1       23.17            0.00            0.00         23.17         0.00         0.00
    189.6       22.96            0.00            0.00         22.96         0.00         0.00
    181.0       22.75            0.00            0.00         22.75         0.00         0.00
    172.4       22.53            0.00            0.00         22.53         0.00         0.00
    163.9       22.30            0.00            0.00         22.30         0.00         0.00
    155.3       22.07            0.00            0.00         22.07         0.00         0.00
    151.0       21.94            0.00            0.00         21.94         0.00         0.00
    146.7       21.82            0.00            0.00         21.82         0.00         0.00
    138.1       21.56            0.00            0.00         21.56         0.00         0.00
    129.6       21.28            0.00            0.00         21.28         0.00         0.00
    121.0       20.99            0.00            0.00         20.99         0.00         0.00
    112.4       20.69            0.00            0.00         20.69         0.00         0.00
    103.9       20.36            0.00            0.00         20.36         0.00         0.00
     95.3       20.01            0.00            0.00         20.01         0.00         0.00
     86.7       19.64            0.00            0.00         19.64         0.00         0.00
     78.1       19.23            0.00            0.00         19.23         0.00         0.00
     69.6       18.79            0.00            0.00         18.79         0.00         0.00
     61.0       18.30            0.00            0.00         18.30         0.00         0.00
     52.4       17.76            0.00            0.00         17.76         0.00         0.00
     43.9       17.14            0.00            0.00         17.14         0.00         0.00
     35.3       16.41            0.00            0.00         16.41         0.00         0.00
     26.7       15.52            0.00            0.00         15.52         0.00         0.00
     18.1       14.36            0.00            0.00         14.36         0.00         0.00
      9.6       12.64            0.00            0.00         12.64         0.00         0.00
      1.0        8.04            0.00            0.00          8.04         0.00         0.00


Harvested Random Seeds after Generation of the Random Numbers:

    119307688 K 1
            0 K 2


Hub-Height Simulated Turbulence Statistical Summary:

   Type of Wind        Min (m/s)   Mean (m/s)    Max (m/s)  Sigma (m/s)       TI (%)
   ----------------    ---------   ----------    ---------  -----------       ------
   Longitudinal (u)        12.47        21.94        32.82        3.386       15.432
   Lateral (v)            -12.26         0.00        10.22        3.467       15.798
   Vertical (w)           -10.94         0.00        11.32        3.467       15.798
   U component             12.47        21.94        32.82        3.386       15.432
   V component            -12.26         0.00        10.22        3.467       15.798
   W component            -10.94         0.00        11.32        3.467       15.798
   Horizontal (U&V)        12.47        22.22        32.96        3.346       15.058
   Total                   12.72        22.50        32.98        3.278       14.570

                       Min Reynolds     Mean Reynolds    Max Reynolds    Correlation
   Product             Stress (m/s)^2   Stress (m/s)^2   Stress (m/s)^2  Coefficient
   ----------------    --------------   --------------   --------------  -----------
   u'w'                    -65.598            -0.483            59.295        -0.041
   u'v'                    -60.796             1.604            70.191         0.137
   v'w'                    -67.246            -0.248            74.407        -0.021


   Friction Velocity (Ustar)  =      0.695 m/s
   Maximum Instantaneous TKE  =     91.159 (m/s)^2
   Maximum Instantaneous CTKE =     51.532 (m/s)^2


Grid Point Variance Summary:

   Y-coord -150.00 -141.43 -132.86 -124.29 -115.71 -107.14  -98.57  -90.00  -81.43  -72.86  -64.29  -55.71  -47.14  -38.57  -30.00  -21.43  -12.86   -4.29    4.29   12.86   21.43   30.00   38.57   47.14   55.71   64.29   72.86   81.43   90.00   98.57  107.14  115.71  124.29  132.86  141.43  150.00

   Height   Standard deviation at grid points for the u component:
   301.00    3.660   3.619   3.332   3.363   3.356   3.195   3.350   3.395   3.487   3.522   3.440   3.444   3.587   3.669   3.533   3.468   3.520   3.534   3.584   3.410   3.492   3.515   3.612   3.514   3.641   3.655   3.621   3.587   3.313   3.195   3.189   3.166   3.102   3.146   3.335   3.341
   292.43    3.652   3.626   3.322   3.276   3.392   3.198   3.208   3.224   3.300   3.420   3.539   3.531   3.585   3.579   3.568   3.670   3.599   3.500   3.594   3.569   3.525   3.359   3.485   3.480   3.854   3.850   3.656   3.693   3.558   3.342   3.050   3.147   3.125   3.189   3.124   3.272
   283.86    3.754   3.530   3.389   3.468   3.474   3.420   3.176   3.296   3.372   3.511   3.547   3.505   3.490   3.562   3.630   3.645   3.537   3.376   3.504   3.372   3.311   3.190   3.264   3.436   3.595   3.790   3.657   3.495   3.354   3.237   3.140   3.008   3.060   2.917   2.906   3.249
   275.29    3.850   3.657   3.573   3.614   3.514   3.339   3.183   3.314   3.416   3.553   3.365   3.598   3.484   3.401   3.375   3.401   3.315   3.336   3.321   3.350   3.329   3.254   3.209   3.378   3.419   3.425   3.440   3.394   3.319   3.208   3.007   3.063   3.121   3.184   3.070   3.236
   266.71    3.805   3.454   3.516   3.671   3.564   3.528   3.392   3.256   3.515   3.593   3.485   3.634   3.539   3.362   3.366   3.323   3.205   3.382   3.312   3.329   3.179   3.198   3.286   3.349   3.134   3.268   3.171   3.296   3.312   3.080   3.113   3.186   3.195   3.212   3.158   3.067
   258.14    4.032   3.591   3.523   3.586   3.514   3.581   3.516   3.301   3.486   3.450   3.564   3.727   3.632   3.487   3.461   3.253   3.104   3.087   3.219   3.273   3.182   3.191   3.243   3.353   3.445   3.359   3.291   3.195   3.357   3.289   3.341   3.221   3.209   3.305   3.218   3.179
   249.57    3.937   3.561   3.669   3.769   3.589   3.455   3.628   3.517   3.393   3.618   3.609   3.773   3.829   3.744   3.694   3.312   3.272   3.295   3.261   3.336   3.321   3.273   3.120   3.277   3.389   3.498   3.421   3.296   3.185   3.354   3.348   3.220   2.978   3.057   3.197   3.221
   241.00    3.731   3.639   3.624   3.704   3.747   3.559   3.645   3.525   3.381   3.591   3.527   3.552   3.693   3.600   3.546   3.491   3.401   3.313   3.352   3.317   3.323   3.337   3.385   3.470   3.617   3.631   3.489   3.321   3.239   3.146   3.089   3.181   3.082   3.007   3.157   3.279
   232.43    3.640   3.633   3.591   3.614   3.592   3.579   3.442   3.497   3.512   3.311   3.407   3.389   3.529   3.625   3.672   3.510   3.430   3.340   3.196   3.099   3.196   3.260   3.276   3.536   3.651   3.511   3.500   3.146   3.093   2.919   3.106   3.216   2.997   2.928   3.151   3.206
   223.86    3.588   3.518   3.539   3.482   3.565   3.534   3.360   3.498   3.331   3.264   3.309   3.411   3.596   3.674   3.688   3.658   3.535   3.172   3.282   3.253   3.254   3.330   3.407   3.326   3.617   3.472   3.311   3.091   2.989   2.872   3.038   3.038   3.074   2.993   3.084   2.993
   215.29    3.625   3.650   3.687   3.517   3.475   3.562   3.277   3.309   3.351   3.345   3.295   3.511   3.464   3.604   3.724   3.508   3.435   3.291   3.346   3.307   3.370   3.379   3.480   3.467   3.636   3.359   3.342   3.215   3.023   2.834   2.926   2.904   2.870   2.927   2.981   3.140
   206.71    3.656   3.649   3.461   3.510   3.618   3.485   3.440   3.265   3.357   3.436   3.415   3.468   3.645   3.588   3.692   3.574   3.313   3.232   3.299   3.322   3.313   3.572   3.487   3.591   3.649   3.538   3.440   3.241   3.214   2.924   3.042   3.008   3.141   2.919   2.971   3.057
   198.14    3.633   3.571   3.442   3.587   3.699   3.512   3.441   3.373   3.389   3.443   3.579   3.425   3.460   3.581   3.510   3.449   3.174   3.342   3.229   3.374   3.463   3.421   3.648   3.774   3.712   3.634   3.443   3.239   3.171   3.215   3.192   3.135   3.246   3.122   3.175   2.983
   189.57    3.499   3.400   3.434   3.533   3.640   3.398   3.304   3.425   3.395   3.336   3.433   3.553   3.499   3.477   3.304   3.335   3.377   3.303   3.249   3.289   3.420   3.557   3.535   3.697   3.630   3.726   3.602   3.202   3.166   3.187   3.227   3.264   3.391   3.217   3.260   3.077
   181.00    3.362   3.523   3.223   3.319   3.295   3.315   3.377   3.302   3.412   3.364   3.523   3.530   3.583   3.581   3.394   3.504   3.370   3.259   3.345   3.319   3.460   3.524   3.608   3.654   3.592   3.448   3.502   3.368   3.118   3.278   3.256   3.321   3.372   3.495   3.440   3.329
   172.43    3.325   3.442   3.304   3.260   3.282   3.085   3.317   3.237   3.231   3.403   3.367   3.656   3.675   3.712   3.494   3.585   3.396   3.415   3.392   3.397   3.353   3.554   3.681   3.617   3.531   3.492   3.416   3.359   3.295   3.414   3.378   3.500   3.340   3.599   3.453   3.608
   163.86    3.275   3.436   3.365   3.460   3.488   3.347   3.448   3.308   3.331   3.407   3.446   3.367   3.495   3.544   3.569   3.383   3.395   3.337   3.452   3.537   3.409   3.537   3.658   3.580   3.610   3.540   3.455   3.452   3.368   3.356   3.460   3.510   3.688   3.617   3.665   3.750
   155.29    3.322   3.252   3.339   3.390   3.343   3.407   3.576   3.548   3.290   3.421   3.437   3.499   3.469   3.394   3.561   3.414   3.523   3.370   3.463   3.554   3.636   3.629   3.578   3.654   3.670   3.541   3.628   3.510   3.356   3.329   3.488   3.415   3.549   3.574   3.646   3.855
   146.71    3.177   3.281   3.413   3.340   3.502   3.477   3.551   3.468   3.505   3.430   3.530   3.562   3.569   3.583   3.451   3.446   3.620   3.573   3.641   3.487   3.548   3.688   3.633   3.543   3.644   3.509   3.546   3.459   3.556   3.621   3.549   3.540   3.576   3.630   3.711   3.803
   138.14    3.128   3.291   3.308   3.198   3.180   3.336   3.368   3.449   3.620   3.631   3.534   3.576   3.562   3.575   3.439   3.570   3.576   3.514   3.672   3.461   3.605   3.578   3.717   3.434   3.522   3.469   3.358   3.408   3.370   3.400   3.483   3.638   3.769   3.772   3.631   3.774
   129.57    3.273   3.270   3.371   3.150   3.255   3.360   3.433   3.415   3.676   3.759   3.768   3.636   3.483   3.543   3.538   3.462   3.454   3.446   3.474   3.441   3.539   3.583   3.647   3.489   3.445   3.420   3.350   3.349   3.361   3.234   3.371   3.537   3.720   3.809   3.621   3.872
   121.00    3.352   3.218   3.273   3.326   3.289   3.314   3.284   3.460   3.767   3.862   3.789   3.647   3.545   3.441   3.520   3.444   3.322   3.314   3.496   3.482   3.598   3.583   3.680   3.476   3.444   3.320   3.396   3.257   3.354   3.315   3.280   3.388   3.508   3.649   3.604   3.820
   112.43    3.330   3.501   3.525   3.506   3.371   3.369   3.363   3.531   3.680   3.763   3.471   3.553   3.544   3.341   3.312   3.312   3.156   3.414   3.604   3.473   3.438   3.658   3.759   3.565   3.397   3.337   3.309   3.212   3.228   3.169   3.282   3.146   3.307   3.547   3.604   3.639
   103.86    3.221   3.447   3.609   3.700   3.576   3.562   3.538   3.606   3.669   3.629   3.399   3.395   3.547   3.566   3.551   3.403   3.402   3.231   3.389   3.419   3.445   3.466   3.684   3.501   3.383   3.463   3.230   3.359   3.191   3.443   3.476   3.459   3.422   3.538   3.532   3.577
    95.29    3.117   3.415   3.736   3.805   3.561   3.759   3.700   3.745   3.650   3.738   3.493   3.557   3.563   3.703   3.604   3.376   3.195   3.130   3.128   3.375   3.370   3.534   3.446   3.547   3.335   3.402   3.248   3.321   3.206   3.343   3.497   3.490   3.465   3.430   3.459   3.460
    86.71    3.182   3.392   3.678   3.782   3.902   4.016   3.806   3.808   3.689   3.694   3.558   3.487   3.604   3.683   3.596   3.345   3.174   3.232   3.160   3.189   3.280   3.284   3.483   3.429   3.370   3.438   3.236   3.253   3.146   3.472   3.662   3.579   3.513   3.430   3.447   3.452
    78.14    3.390   3.405   3.699   3.832   3.842   3.781   3.843   3.669   3.558   3.729   3.732   3.758   3.531   3.496   3.485   3.423   3.325   3.205   3.282   3.172   3.295   3.345   3.500   3.512   3.478   3.498   3.460   3.529   3.268   3.267   3.262   3.391   3.427   3.225   3.415   3.547
    69.57    3.447   3.379   3.671   3.770   3.838   3.674   3.598   3.831   3.557   3.574   3.633   3.571   3.686   3.569   3.587   3.497   3.330   3.303   3.206   3.248   3.261   3.333   3.254   3.536   3.627   3.698   3.569   3.438   3.334   3.227   3.247   3.239   3.290   3.286   3.242   3.225
    61.00    3.319   3.375   3.376   3.547   3.576   3.512   3.500   3.521   3.456   3.370   3.551   3.502   3.529   3.633   3.529   3.410   3.394   3.254   3.171   3.185   3.284   3.336   3.313   3.348   3.654   3.730   3.730   3.469   3.119   3.133   3.066   3.128   3.271   3.204   3.260   3.199
    52.43    3.154   3.357   3.296   3.347   3.624   3.491   3.514   3.610   3.408   3.372   3.438   3.412   3.269   3.341   3.483   3.370   3.304   3.200   3.026   3.225   3.247   3.266   3.262   3.468   3.490   3.531   3.556   3.297   3.193   3.214   3.267   3.141   3.218   3.365   3.244   3.411
    43.86    3.189   3.237   3.425   3.495   3.594   3.320   3.384   3.486   3.472   3.391   3.439   3.268   3.307   3.295   3.290   3.432   3.423   3.124   3.208   3.337   3.347   3.293   3.228   3.478   3.645   3.568   3.399   3.344   3.207   3.161   3.260   3.216   3.242   3.274   3.406   3.530
    35.29    3.245   3.387   3.442   3.489   3.588   3.708   3.478   3.597   3.532   3.515   3.529   3.267   3.223   3.306   3.387   3.378   3.454   3.393   3.270   3.299   3.306   3.480   3.409   3.455   3.507   3.517   3.446   3.501   3.363   3.282   3.280   3.452   3.330   3.465   3.615   3.720
    26.71    3.550   3.436   3.408   3.490   3.584   3.557   3.598   3.609   3.544   3.497   3.576   3.175   3.348   3.333   3.440   3.576   3.578   3.464   3.372   3.362   3.469   3.432   3.555   3.532   3.570   3.575   3.395   3.430   3.394   3.333   3.357   3.435   3.452   3.473   3.620   3.847
    18.14    3.411   3.569   3.526   3.551   3.512   3.550   3.678   3.679   3.636   3.496   3.571   3.474   3.367   3.285   3.513   3.701   3.736   3.606   3.440   3.453   3.466   3.539   3.646   3.657   3.626   3.858   3.753   3.580   3.519   3.424   3.441   3.610   3.497   3.492   3.573   3.532
     9.57    3.516   3.599   3.617   3.563   3.500   3.587   3.729   3.807   3.725   3.660   3.781   3.619   3.404   3.387   3.373   3.501   3.486   3.560   3.251   3.449   3.323   3.500   3.605   3.800   3.776   3.740   3.812   3.801   3.346   3.492   3.445   3.444   3.574   3.366   3.568   3.748
     1.00    3.461   3.547   3.648   3.551   3.564   3.524   3.647   3.667   3.723   3.631   3.613   3.764   3.533   3.446   3.473   3.450   3.498   3.554   3.434   3.484   3.564   3.445   3.503   3.625   3.699   3.848   3.825   3.656   3.556   3.454   3.554   3.626   3.643   3.394   3.503   3.625

   Height   Standard deviation at grid points for the v component:
   301.00    3.467   3.467   3.467   3.467   3.467   3.467   3.467   3.467   3.467   3.467   3.467   3.467   3.467   3.467   3.467   3.467   3.467   3.467   3.467   3.467   3.467   3.467   3.467   3.467   3.467   3.467   3.467   3.467   3.467   3.467   3.467   3.467   3.467   3.467   3.467   3.467
   292.43    3.467   3.467   3.467   3.467   3.467   3.467   3.467   3.467   3.467   3.467   3.467   3.467   3.467   3.467   3.467   3.467   3.467   3.467   3.467   3.467   3.467   3.467   3.467   3.467   3.467   3.467   3.467   3.467   3.467   3.467   3.467   3.467   3.467   3.467   3.467   3.467
   283.86    3.467   3.467   3.467   3.467   3.467   3.467   3.467   3.467   3.467   3.467   3.467   3.467   3.467   3.467   3.467   3.467   3.467   3.467   3.467   3.467   3.467   3.467   3.467   3.467   3.467   3.467   3.467   3.467   3.467   3.467   3.467   3.467   3.467   3.467   3.467   3.467
   275.29    3.467   3.467   3.467   3.467   3.467   3.467   3.467   3.467   3.467   3.467   3.467   3.467   3.467   3.467   3.467   3.467   3.467   3.467   3.467   3.467   3.467   3.467   3.467   3.467   3.467   3.467   3.467   3.467   3.467   3.467   3.467   3.467   3.467   3.467   3.467   3.467
   266.71    3.467   3.467   3.467   3.467   3.467   3.467   3.467   3.467   3.467   3.467   3.467   3.467   3.467   3.467   3.467   3.467   3.467   3.467   3.467   3.467   3.467   3.467   3.467   3.467   3.467   3.467   3.467   3.467   3.467   3.467   3.467   3.467   3.467   3.467   3.467   3.467
   258.14    3.467   3.467   3.467   3.467   3.467   3.467   3.467   3.467   3.467   3.467   3.467   3.467   3.467   3.467   3.467   3.467   3.467   3.467   3.467   3.467   3.467   3.467   3.467   3.467   3.467   3.467   3.467   3.467   3.467   3.467   3.467   3.467   3.467   3.467   3.467   3.467
   249.57    3.467   3.467   3.467   3.467   3.467   3.467   3.467   3.467   3.467   3.467   3.467   3.467   3.467   3.467   3.467   3.467   3.467   3.467   3.467   3.467   3.467   3.467   3.467   3.467   3.467   3.467   3.467   3.467   3.467   3.467   3.467   3.467   3.467   3.467   3.467   3.467
   241.00    3.467   3.467   3.467   3.467   3.467   3.467   3.467   3.467   3.467   3.467   3.467   3.467   3.467   3.467   3.467   3.467   3.467   3.467   3.467   3.467   3.467   3.467   3.467   3.467   3.467   3.467   3.467   3.467   3.467   3.467   3.467   3.467   3.467   3.467   3.467   3.467
   232.43    3.467   3.467   3.467   3.467   3.467   3.467   3.467   3.467   3.467   3.467   3.467   3.467   3.467   3.467   3.467   3.467   3.467   3.467   3.467   3.467   3.467   3.467   3.467   3.467   3.467   3.467   3.467   3.467   3.467   3.467   3.467   3.467   3.467   3.467   3.467   3.467
   223.86    3.467   3.467   3.467   3.467   3.467   3.467   3.467   3.467   3.467   3.467   3.467   3.467   3.467   3.467   3.467   3.467   3.467   3.467   3.467   3.467   3.467   3.467   3.467   3.467   3.467   3.467   3.467   3.467   3.467   3.467   3.467   3.467   3.467   3.467   3.467   3.467
   215.29    3.467   3.467   3.467   3.467   3.467   3.467   3.467   3.467   3.467   3.467   3.467   3.467   3.467   3.467   3.467   3.467   3.467   3.467   3.467   3.467   3.467   3.467   3.467   3.467   3.467   3.467   3.467   3.467   3.467   3.467   3.467   3.467   3.467   3.467   3.467   3.467
   206.71    3.467   3.467   3.467   3.467   3.467   3.467   3.467   3.467   3.467   3.467   3.467   3.467   3.467   3.467   3.467   3.467   3.467   3.467   3.467   3.467   3.467   3.467   3.467   3.467   3.467   3.467   3.467   3.467   3.467   3.467   3.467   3.467   3.467   3.467   3.467   3.467
   198.14    3.467   3.467   3.467   3.467   3.467   3.467   3.467   3.467   3.467   3.467   3.467   3.467   3.467   3.467   3.467   3.467   3.467   3.467   3.467   3.467   3.467   3.467   3.467   3.467   3.467   3.467   3.467   3.467   3.467   3.467   3.467   3.467   3.467   3.467   3.467   3.467
   189.57    3.467   3.467   3.467   3.467   3.467   3.467   3.467   3.467   3.467   3.467   3.467   3.467   3.467   3.467   3.467   3.467   3.467   3.467   3.467   3.467   3.467   3.467   3.467   3.467   3.467   3.467   3.467   3.467   3.467   3.467   3.467   3.467   3.467   3.467   3.467   3.467
   181.00    3.467   3.467   3.467   3.467   3.467   3.467   3.467   3.467   3.467   3.467   3.467   3.467   3.467   3.467   3.467   3.467   3.467   3.467   3.467   3.467   3.467   3.467   3.467   3.467   3.467   3.467   3.467   3.467   3.467   3.467   3.467   3.467   3.467   3.467   3.467   3.467
   172.43    3.467   3.467   3.467   3.467   3.467   3.467   3.467   3.467   3.467   3.467   3.467   3.467   3.467   3.467   3.467   3.467   3.467   3.467   3.467   3.467   3.467   3.467   3.467   3.467   3.467   3.467   3.467   3.467   3.467   3.467   3.467   3.467   3.467   3.467   3.467   3.467
   163.86    3.467   3.467   3.467   3.467   3.467   3.467   3.467   3.467   3.467   3.467   3.467   3.467   3.467   3.467   3.467   3.467   3.467   3.467   3.467   3.467   3.467   3.467   3.467   3.467   3.467   3.467   3.467   3.467   3.467   3.467   3.467   3.467   3.467   3.467   3.467   3.467
   155.29    3.467   3.467   3.467   3.467   3.467   3.467   3.467   3.467   3.467   3.467   3.467   3.467   3.467   3.467   3.467   3.467   3.467   3.467   3.467   3.467   3.467   3.467   3.467   3.467   3.467   3.467   3.467   3.467   3.467   3.467   3.467   3.467   3.467   3.467   3.467   3.467
   146.71    3.467   3.467   3.467   3.467   3.467   3.467   3.467   3.467   3.467   3.467   3.467   3.467   3.467   3.467   3.467   3.467   3.467   3.467   3.467   3.467   3.467   3.467   3.467   3.467   3.467   3.467   3.467   3.467   3.467   3.467   3.467   3.467   3.467   3.467   3.467   3.467
   138.14    3.467   3.467   3.467   3.467   3.467   3.467   3.467   3.467   3.467   3.467   3.467   3.467   3.467   3.467   3.467   3.467   3.467   3.467   3.467   3.467   3.467   3.467   3.467   3.467   3.467   3.467   3.467   3.467   3.467   3.467   3.467   3.467   3.467   3.467   3.467   3.467
   129.57    3.467   3.467   3.467   3.467   3.467   3.467   3.467   3.467   3.467   3.467   3.467   3.467   3.467   3.467   3.467   3.467   3.467   3.467   3.467   3.467   3.467   3.467   3.467   3.467   3.467   3.467   3.467   3.467   3.467   3.467   3.467   3.467   3.467   3.467   3.467   3.467
   121.00    3.467   3.467   3.467   3.467   3.467   3.467   3.467   3.467   3.467   3.467   3.467   3.467   3.467   3.467   3.467   3.467   3.467   3.467   3.467   3.467   3.467   3.467   3.467   3.467   3.467   3.467   3.467   3.467   3.467   3.467   3.467   3.467   3.467   3.467   3.467   3.467
   112.43    3.467   3.467   3.467   3.467   3.467   3.467   3.467   3.467   3.467   3.467   3.467   3.467   3.467   3.467   3.467   3.467   3.467   3.467   3.467   3.467   3.467   3.467   3.467   3.467   3.467   3.467   3.467   3.467   3.467   3.467   3.467   3.467   3.467   3.467   3.467   3.467
   103.86    3.467   3.467   3.467   3.467   3.467   3.467   3.467   3.467   3.467   3.467   3.467   3.467   3.467   3.467   3.467   3.467   3.467   3.467   3.467   3.467   3.467   3.467   3.467   3.467   3.467   3.467   3.467   3.467   3.467   3.467   3.467   3.467   3.467   3.467   3.467   3.467
    95.29    3.467   3.467   3.467   3.467   3.467   3.467   3.467   3.467   3.467   3.467   3.467   3.467   3.467   3.467   3.467   3.467   3.467   3.467   3.467   3.467   3.467   3.467   3.467   3.467   3.467   3.467   3.467   3.467   3.467   3.467   3.467   3.467   3.467   3.467   3.467   3.467
    86.71    3.467   3.467   3.467   3.467   3.467   3.467   3.467   3.467   3.467   3.467   3.467   3.467   3.467   3.467   3.467   3.467   3.467   3.467   3.467   3.467   3.467   3.467   3.467   3.467   3.467   3.467   3.467   3.467   3.467   3.467   3.467   3.467   3.467   3.467   3.467   3.467
    78.14    3.467   3.467   3.467   3.467   3.467   3.467   3.467   3.467   3.467   3.467   3.467   3.467   3.467   3.467   3.467   3.467   3.467   3.467   3.467   3.467   3.467   3.467   3.467   3.467   3.467   3.467   3.467   3.467   3.467   3.467   3.467   3.467   3.467   3.467   3.467   3.467
    69.57    3.467   3.467   3.467   3.467   3.467   3.467   3.467   3.467   3.467   3.467   3.467   3.467   3.467   3.467   3.467   3.467   3.467   3.467   3.467   3.467   3.467   3.467   3.467   3.467   3.467   3.467   3.467   3.467   3.467   3.467   3.467   3.467   3.467   3.467   3.467   3.467
    61.00    3.467   3.467   3.467   3.467   3.467   3.467   3.467   3.467   3.467   3.467   3.467   3.467   3.467   3.467   3.467   3.467   3.467   3.467   3.467   3.467   3.467   3.467   3.467   3.467   3.467   3.467   3.467   3.467   3.467   3.467   3.467   3.467   3.467   3.467   3.467   3.467
    52.43    3.467   3.467   3.467   3.467   3.467   3.467   3.467   3.467   3.467   3.467   3.467   3.467   3.467   3.467   3.467   3.467   3.467   3.467   3.467   3.467   3.467   3.467   3.467   3.467   3.467   3.467   3.467   3.467   3.467   3.467   3.467   3.467   3.467   3.467   3.467   3.467
    43.86    3.467   3.467   3.467   3.467   3.467   3.467   3.467   3.467   3.467   3.467   3.467   3.467   3.467   3.467   3.467   3.467   3.467   3.467   3.467   3.467   3.467   3.467   3.467   3.467   3.467   3.467   3.467   3.467   3.467   3.467   3.467   3.467   3.467   3.467   3.467   3.467
    35.29    3.467   3.467   3.467   3.467   3.467   3.467   3.467   3.467   3.467   3.467   3.467   3.467   3.467   3.467   3.467   3.467   3.467   3.467   3.467   3.467   3.467   3.467   3.467   3.467   3.467   3.467   3.467   3.467   3.467   3.467   3.467   3.467   3.467   3.467   3.467   3.467
    26.71    3.467   3.467   3.467   3.467   3.467   3.467   3.467   3.467   3.467   3.467   3.467   3.467   3.467   3.467   3.467   3.467   3.467   3.467   3.467   3.467   3.467   3.467   3.467   3.467   3.467   3.467   3.467   3.467   3.467   3.467   3.467   3.467   3.467   3.467   3.467   3.467
    18.14    3.467   3.467   3.467   3.467   3.467   3.467   3.467   3.467   3.467   3.467   3.467   3.467   3.467   3.467   3.467   3.467   3.467   3.467   3.467   3.467   3.467   3.467   3.467   3.467   3.467   3.467   3.467   3.467   3.467   3.467   3.467   3.467   3.467   3.467   3.467   3.467
     9.57    3.467   3.467   3.467   3.467   3.467   3.467   3.467   3.467   3.467   3.467   3.467   3.467   3.467   3.467   3.467   3.467   3.467   3.467   3.467   3.467   3.467   3.467   3.467   3.467   3.467   3.467   3.467   3.467   3.467   3.467   3.467   3.467   3.467   3.467   3.467   3.467
     1.00    3.467   3.467   3.467   3.467   3.467   3.467   3.467   3.467   3.467   3.467   3.467   3.467   3.467   3.467   3.467   3.467   3.467   3.467   3.467   3.467   3.467   3.467   3.467   3.467   3.467   3.467   3.467   3.467   3.467   3.467   3.467   3.467   3.467   3.467   3.467   3.467

   Height   Standard deviation at grid points for the w component:
   301.00    3.467   3.467   3.467   3.467   3.467   3.467   3.467   3.467   3.467   3.467   3.467   3.467   3.467   3.467   3.467   3.467   3.467   3.467   3.467   3.467   3.467   3.467   3.467   3.467   3.467   3.467   3.467   3.467   3.467   3.467   3.467   3.467   3.467   3.467   3.467   3.467
   292.43    3.467   3.467   3.467   3.467   3.467   3.467   3.467   3.467   3.467   3.467   3.467   3.467   3.467   3.467   3.467   3.467   3.467   3.467   3.467   3.467   3.467   3.467   3.467   3.467   3.467   3.467   3.467   3.467   3.467   3.467   3.467   3.467   3.467   3.467   3.467   3.467
   283.86    3.467   3.467   3.467   3.467   3.467   3.467   3.467   3.467   3.467   3.467   3.467   3.467   3.467   3.467   3.467   3.467   3.467   3.467   3.467   3.467   3.467   3.467   3.467   3.467   3.467   3.467   3.467   3.467   3.467   3.467   3.467   3.467   3.467   3.467   3.467   3.467
   275.29    3.467   3.467   3.467   3.467   3.467   3.467   3.467   3.467   3.467   3.467   3.467   3.467   3.467   3.467   3.467   3.467   3.467   3.467   3.467   3.467   3.467   3.467   3.467   3.467   3.467   3.467   3.467   3.467   3.467   3.467   3.467   3.467   3.467   3.467   3.467   3.467
   266.71    3.467   3.467   3.467   3.467   3.467   3.467   3.467   3.467   3.467   3.467   3.467   3.467   3.467   3.467   3.467   3.467   3.467   3.467   3.467   3.467   3.467   3.467   3.467   3.467   3.467   3.467   3.467   3.467   3.467   3.467   3.467   3.467   3.467   3.467   3.467   3.467
   258.14    3.467   3.467   3.467   3.467   3.467   3.467   3.467   3.467   3.467   3.467   3.467   3.467   3.467   3.467   3.467   3.467   3.467   3.467   3.467   3.467   3.467   3.467   3.467   3.467   3.467   3.467   3.467   3.467   3.467   3.467   3.467   3.467   3.467   3.467   3.467   3.467
   249.57    3.467   3.467   3.467   3.467   3.467   3.467   3.467   3.467   3.467   3.467   3.467   3.467   3.467   3.467   3.467   3.467   3.467   3.467   3.467   3.467   3.467   3.467   3.467   3.467   3.467   3.467   3.467   3.467   3.467   3.467   3.467   3.467   3.467   3.467   3.467   3.467
   241.00    3.467   3.467   3.467   3.467   3.467   3.467   3.467   3.467   3.467   3.467   3.467   3.467   3.467   3.467   3.467   3.467   3.467   3.467   3.467   3.467   3.467   3.467   3.467   3.467   3.467   3.467   3.467   3.467   3.467   3.467   3.467   3.467   3.467   3.467   3.467   3.467
   232.43    3.467   3.467   3.467   3.467   3.467   3.467   3.467   3.467   3.467   3.467   3.467   3.467   3.467   3.467   3.467   3.467   3.467   3.467   3.467   3.467   3.467   3.467   3.467   3.467   3.467   3.467   3.467   3.467   3.467   3.467   3.467   3.467   3.467   3.467   3.467   3.467
   223.86    3.467   3.467   3.467   3.467   3.467   3.467   3.467   3.467   3.467   3.467   3.467   3.467   3.467   3.467   3.467   3.467   3.467   3.467   3.467   3.467   3.467   3.467   3.467   3.467   3.467   3.467   3.467   3.467   3.467   3.467   3.467   3.467   3.467   3.467   3.467   3.467
   215.29    3.467   3.467   3.467   3.467   3.467   3.467   3.467   3.467   3.467   3.467   3.467   3.467   3.467   3.467   3.467   3.467   3.467   3.467   3.467   3.467   3.467   3.467   3.467   3.467   3.467   3.467   3.467   3.467   3.467   3.467   3.467   3.467   3.467   3.467   3.467   3.467
   206.71    3.467   3.467   3.467   3.467   3.467   3.467   3.467   3.467   3.467   3.467   3.467   3.467   3.467   3.467   3.467   3.467   3.467   3.467   3.467   3.467   3.467   3.467   3.467   3.467   3.467   3.467   3.467   3.467   3.467   3.467   3.467   3.467   3.467   3.467   3.467   3.467
   198.14    3.467   3.467   3.467   3.467   3.467   3.467   3.467   3.467   3.467   3.467   3.467   3.467   3.467   3.467   3.467   3.467   3.467   3.467   3.467   3.467   3.467   3.467   3.467   3.467   3.467   3.467   3.467   3.467   3.467   3.467   3.467   3.467   3.467   3.467   3.467   3.467
   189.57    3.467   3.467   3.467   3.467   3.467   3.467   3.467   3.467   3.467   3.467   3.467   3.467   3.467   3.467   3.467   3.467   3.467   3.467   3.467   3.467   3.467   3.467   3.467   3.467   3.467   3.467   3.467   3.467   3.467   3.467   3.467   3.467   3.467   3.467   3.467   3.467
   181.00    3.467   3.467   3.467   3.467   3.467   3.467   3.467   3.467   3.467   3.467   3.467   3.467   3.467   3.467   3.467   3.467   3.467   3.467   3.467   3.467   3.467   3.467   3.467   3.467   3.467   3.467   3.467   3.467   3.467   3.467   3.467   3.467   3.467   3.467   3.467   3.467
   172.43    3.467   3.467   3.467   3.467   3.467   3.467   3.467   3.467   3.467   3.467   3.467   3.467   3.467   3.467   3.467   3.467   3.467   3.467   3.467   3.467   3.467   3.467   3.467   3.467   3.467   3.467   3.467   3.467   3.467   3.467   3.467   3.467   3.467   3.467   3.467   3.467
   163.86    3.467   3.467   3.467   3.467   3.467   3.467   3.467   3.467   3.467   3.467   3.467   3.467   3.467   3.467   3.467   3.467   3.467   3.467   3.467   3.467   3.467   3.467   3.467   3.467   3.467   3.467   3.467   3.467   3.467   3.467   3.467   3.467   3.467   3.467   3.467   3.467
   155.29    3.467   3.467   3.467   3.467   3.467   3.467   3.467   3.467   3.467   3.467   3.467   3.467   3.467   3.467   3.467   3.467   3.467   3.467   3.467   3.467   3.467   3.467   3.467   3.467   3.467   3.467   3.467   3.467   3.467   3.467   3.467   3.467   3.467   3.467   3.467   3.467
   146.71    3.467   3.467   3.467   3.467   3.467   3.467   3.467   3.467   3.467   3.467   3.467   3.467   3.467   3.467   3.467   3.467   3.467   3.467   3.467   3.467   3.467   3.467   3.467   3.467   3.467   3.467   3.467   3.467   3.467   3.467   3.467   3.467   3.467   3.467   3.467   3.467
   138.14    3.467   3.467   3.467   3.467   3.467   3.467   3.467   3.467   3.467   3.467   3.467   3.467   3.467   3.467   3.467   3.467   3.467   3.467   3.467   3.467   3.467   3.467   3.467   3.467   3.467   3.467   3.467   3.467   3.467   3.467   3.467   3.467   3.467   3.467   3.467   3.467
   129.57    3.467   3.467   3.467   3.467   3.467   3.467   3.467   3.467   3.467   3.467   3.467   3.467   3.467   3.467   3.467   3.467   3.467   3.467   3.467   3.467   3.467   3.467   3.467   3.467   3.467   3.467   3.467   3.467   3.467   3.467   3.467   3.467   3.467   3.467   3.467   3.467
   121.00    3.467   3.467   3.467   3.467   3.467   3.467   3.467   3.467   3.467   3.467   3.467   3.467   3.467   3.467   3.467   3.467   3.467   3.467   3.467   3.467   3.467   3.467   3.467   3.467   3.467   3.467   3.467   3.467   3.467   3.467   3.467   3.467   3.467   3.467   3.467   3.467
   112.43    3.467   3.467   3.467   3.467   3.467   3.467   3.467   3.467   3.467   3.467   3.467   3.467   3.467   3.467   3.467   3.467   3.467   3.467   3.467   3.467   3.467   3.467   3.467   3.467   3.467   3.467   3.467   3.467   3.467   3.467   3.467   3.467   3.467   3.467   3.467   3.467
   103.86    3.467   3.467   3.467   3.467   3.467   3.467   3.467   3.467   3.467   3.467   3.467   3.467   3.467   3.467   3.467   3.467   3.467   3.467   3.467   3.467   3.467   3.467   3.467   3.467   3.467   3.467   3.467   3.467   3.467   3.467   3.467   3.467   3.467   3.467   3.467   3.467
    95.29    3.467   3.467   3.467   3.467   3.467   3.467   3.467   3.467   3.467   3.467   3.467   3.467   3.467   3.467   3.467   3.467   3.467   3.467   3.467   3.467   3.467   3.467   3.467   3.467   3.467   3.467   3.467   3.467   3.467   3.467   3.467   3.467   3.467   3.467   3.467   3.467
    86.71    3.467   3.467   3.467   3.467   3.467   3.467   3.467   3.467   3.467   3.467   3.467   3.467   3.467   3.467   3.467   3.467   3.467   3.467   3.467   3.467   3.467   3.467   3.467   3.467   3.467   3.467   3.467   3.467   3.467   3.467   3.467   3.467   3.467   3.467   3.467   3.467
    78.14    3.467   3.467   3.467   3.467   3.467   3.467   3.467   3.467   3.467   3.467   3.467   3.467   3.467   3.467   3.467   3.467   3.467   3.467   3.467   3.467   3.467   3.467   3.467   3.467   3.467   3.467   3.467   3.467   3.467   3.467   3.467   3.467   3.467   3.467   3.467   3.467
    69.57    3.467   3.467   3.467   3.467   3.467   3.467   3.467   3.467   3.467   3.467   3.467   3.467   3.467   3.467   3.467   3.467   3.467   3.467   3.467   3.467   3.467   3.467   3.467   3.467   3.467   3.467   3.467   3.467   3.467   3.467   3.467   3.467   3.467   3.467   3.467   3.467
    61.00    3.467   3.467   3.467   3.467   3.467   3.467   3.467   3.467   3.467   3.467   3.467   3.467   3.467   3.467   3.467   3.467   3.467   3.467   3.467   3.467   3.467   3.467   3.467   3.467   3.467   3.467   3.467   3.467   3.467   3.467   3.467   3.467   3.467   3.467   3.467   3.467
    52.43    3.467   3.467   3.467   3.467   3.467   3.467   3.467   3.467   3.467   3.467   3.467   3.467   3.467   3.467   3.467   3.467   3.467   3.467   3.467   3.467   3.467   3.467   3.467   3.467   3.467   3.467   3.467   3.467   3.467   3.467   3.467   3.467   3.467   3.467   3.467   3.467
    43.86    3.467   3.467   3.467   3.467   3.467   3.467   3.467   3.467   3.467   3.467   3.467   3.467   3.467   3.467   3.467   3.467   3.467   3.467   3.467   3.467   3.467   3.467   3.467   3.467   3.467   3.467   3.467   3.467   3.467   3.467   3.467   3.467   3.467   3.467   3.467   3.467
    35.29    3.467   3.467   3.467   3.467   3.467   3.467   3.467   3.467   3.467   3.467   3.467   3.467   3.467   3.467   3.467   3.467   3.467   3.467   3.467   3.467   3.467   3.467   3.467   3.467   3.467   3.467   3.467   3.467   3.467   3.467   3.467   3.467   3.467   3.467   3.467   3.467
    26.71    3.467   3.467   3.467   3.467   3.467   3.467   3.467   3.467   3.467   3.467   3.467   3.467   3.467   3.467   3.467   3.467   3.467   3.467   3.467   3.467   3.467   3.467   3.467   3.467   3.467   3.467   3.467   3.467   3.467   3.467   3.467   3.467   3.467   3.467   3.467   3.467
    18.14    3.467   3.467   3.467   3.467   3.467   3.467   3.467   3.467   3.467   3.467   3.467   3.467   3.467   3.467   3.467   3.467   3.467   3.467   3.467   3.467   3.467   3.467   3.467   3.467   3.467   3.467   3.467   3.467   3.467   3.467   3.467   3.467   3.467   3.467   3.467   3.467
     9.57    3.467   3.467   3.467   3.467   3.467   3.467   3.467   3.467   3.467   3.467   3.467   3.467   3.467   3.467   3.467   3.467   3.467   3.467   3.467   3.467   3.467   3.467   3.467   3.467   3.467   3.467   3.467   3.467   3.467   3.467   3.467   3.467   3.467   3.467   3.467   3.467
     1.00    3.467   3.467   3.467   3.467   3.467   3.467   3.467   3.467   3.467   3.467   3.467   3.467   3.467   3.467   3.467   3.467   3.467   3.467   3.467   3.467   3.467   3.467   3.467   3.467   3.467   3.467   3.467   3.467   3.467   3.467   3.467   3.467   3.467   3.467   3.467   3.467

   Mean standard deviation across all grid points:
      u component:    3.438 m/s
      v component:    3.467 m/s
      w component:    3.467 m/s


U-component (X) statistics from the interpolated hub point:

   Mean =  21.9408 m/s
   TI   =  14.4331 %


Normalizing Parameters for Binary Data (approximate statistics):

   UBar  =  21.9422 m/s
   TI(u) =  15.4320 %
   TI(v) =  15.7984 %
   TI(w) =  15.7984 %

   Height Offset =   0.0000 m
   Grid Base     =   1.0000 m

Creating a PERIODIC output file.


Processing complete.  111.56 CPU seconds used.
