
This summary file was generated by TurbSim (v2.00.07a-bjj, 14-Jun-2016) on 03-Nov-2023 at 03:24:13.


Runtime Options:

      4801  Random seed #1
    RANLUX  Type of random number generator
         F  Output binary HH turbulence parameters?
         F  Output formatted turbulence parameters?
         F  Output AeroDyn HH files?
         F  Output AeroDyn FF files?
         T  Output BLADED FF files?
         F  Output tower data?
         F  Output formatted FF files?
         F  Output coherent turbulence time step file?
         T  Clockwise rotation when looking downwind?
 0 -  NONE  IEC turbulence models scaled to exact specified standard deviation


Turbine/Model Specifications:

        36  Vertical grid-point matrix dimension
        36  Horizontal grid-point matrix dimension
     0.100  Time step [seconds]
   660.000  Analysis time [seconds]
   660.000  Usable output time [seconds]
   151.000  Hub height [m]
   300.000  Grid height [m]
   300.000  Grid width [m]
     0.000  Vertical flow angle [degrees]
     0.000  Horizontal flow angle [degrees]


Meteorological Boundary Conditions:

    IECVKM  IEC von Karman spectral model
         1  IEC standard: IEC 61400-1 Ed. 3: 2005
         A  IEC turbulence characteristic
       NTM  IEC Normal Turbulence Model
       N/A  IEC Extreme Turbulence Model (ETM) "c" parameter [m/s]
       PL   Wind profile type
   153.000  Reference height [m]
    20.000  Reference wind speed [m/s]
       N/A  Jet height [m]
     0.200  Power law exponent
     0.030  Surface roughness length [m]


Non-IEC Meteorological Boundary Conditions:

       N/A  Site latitude [degrees]
       N/A  Gradient Richardson number
       N/A  Friction or shear velocity [m/s]
       N/A  Mixing layer depth [m]
       N/A  Mean hub u'w' Reynolds stress
       N/A  Mean hub u'v' Reynolds stress
       N/A  Mean hub v'w' Reynolds stress


Spatial Coherence Models:

       IEC  u-component coherence model
      NONE  v-component coherence model
      NONE  w-component coherence model
(   12.000, 0.353E-03)  u-component coherence parameters
                   N/A  v-component coherence parameters
                   N/A  w-component coherence parameters
       N/A  Coherence exponent


You have requested that the following file(s) be generated:

   G:\2023\OpenWECDV1.0.0_x64\BaseLIne\wind\WindL_V_20_seed_4801.wnd (AeroDyn/BLADED full-field wnd file)


Turbulence Simulation Scaling Parameter Summary:

   Turbulence model used                            =  IEC von Karman
   Turbulence characteristic                        =  A
   IEC turbulence type                              =  Normal Turbulence Model
   IEC standard                                     =  IEC 61400-1 Ed. 3: 2005
   Mean wind speed at hub height                    =   19.947 m/s
   Expected value of turbulence intensity at 15 m/s =   16.000%
   Characteristic value of standard deviation       =    3.290 m/s
   Turbulence scale                                 =   42.000 m
   Isotropic integral scale                         =  147.000 m
   Characteristic value of hub turbulence intensity =   16.492%
   Gradient Richardson number                       =    0.000

   Wind profile type                                =  Power law
   Power law exponent                               =    0.200
   Mean shear across rotor disk                     =    0.052 (m/s)/m
   Assumed rotor diameter                           =  300.000 m
   Surface roughness length                         =    0.030 m

   Nyquist frequency of turbulent wind field        =    5.000 Hz

   Number of time steps in the FFT                  =     6600
   Number of time steps output                      =     6600
   Number of points simulated                       =     1297


Mean Flow Angles:

   Vertical   =   0.0 degrees
   Horizontal =   0.0 degrees

Mean Wind Speed Profile:

   Height    Wind Speed   Horizontal Angle  Vertical Angle  U-comp (X)   V-comp (Y)   W-comp (Z)
     (m)        (m/s)         (degrees)       (degrees)       (m/s)        (m/s)        (m/s)   
   ------    ----------   ----------------  --------------  ----------   ----------   ----------
    301.0       22.90            0.00            0.00         22.90         0.00         0.00
    292.4       22.77            0.00            0.00         22.77         0.00         0.00
    283.9       22.63            0.00            0.00         22.63         0.00         0.00
    275.3       22.49            0.00            0.00         22.49         0.00         0.00
    266.7       22.35            0.00            0.00         22.35         0.00         0.00
    258.1       22.21            0.00            0.00         22.21         0.00         0.00
    249.6       22.06            0.00            0.00         22.06         0.00         0.00
    241.0       21.90            0.00            0.00         21.90         0.00         0.00
    232.4       21.74            0.00            0.00         21.74         0.00         0.00
    223.9       21.58            0.00            0.00         21.58         0.00         0.00
    215.3       21.41            0.00            0.00         21.41         0.00         0.00
    206.7       21.24            0.00            0.00         21.24         0.00         0.00
    198.1       21.06            0.00            0.00         21.06         0.00         0.00
    189.6       20.88            0.00            0.00         20.88         0.00         0.00
    181.0       20.68            0.00            0.00         20.68         0.00         0.00
    172.4       20.48            0.00            0.00         20.48         0.00         0.00
    163.9       20.28            0.00            0.00         20.28         0.00         0.00
    155.3       20.06            0.00            0.00         20.06         0.00         0.00
    151.0       19.95            0.00            0.00         19.95         0.00         0.00
    146.7       19.83            0.00            0.00         19.83         0.00         0.00
    138.1       19.60            0.00            0.00         19.60         0.00         0.00
    129.6       19.35            0.00            0.00         19.35         0.00         0.00
    121.0       19.08            0.00            0.00         19.08         0.00         0.00
    112.4       18.80            0.00            0.00         18.80         0.00         0.00
    103.9       18.51            0.00            0.00         18.51         0.00         0.00
     95.3       18.19            0.00            0.00         18.19         0.00         0.00
     86.7       17.85            0.00            0.00         17.85         0.00         0.00
     78.1       17.49            0.00            0.00         17.49         0.00         0.00
     69.6       17.08            0.00            0.00         17.08         0.00         0.00
     61.0       16.64            0.00            0.00         16.64         0.00         0.00
     52.4       16.14            0.00            0.00         16.14         0.00         0.00
     43.9       15.58            0.00            0.00         15.58         0.00         0.00
     35.3       14.91            0.00            0.00         14.91         0.00         0.00
     26.7       14.11            0.00            0.00         14.11         0.00         0.00
     18.1       13.06            0.00            0.00         13.06         0.00         0.00
      9.6       11.49            0.00            0.00         11.49         0.00         0.00
      1.0        7.31            0.00            0.00          7.31         0.00         0.00


Harvested Random Seeds after Generation of the Random Numbers:

    119307688 K 1
            0 K 2


Hub-Height Simulated Turbulence Statistical Summary:

   Type of Wind        Min (m/s)   Mean (m/s)    Max (m/s)  Sigma (m/s)       TI (%)
   ----------------    ---------   ----------    ---------  -----------       ------
   Longitudinal (u)         8.83        19.95        32.27        3.208       16.081
   Lateral (v)            -10.73         0.00         8.93        3.232       16.202
   Vertical (w)           -11.38         0.00        12.01        3.232       16.202
   U component              8.83        19.95        32.27        3.208       16.081
   V component            -10.73         0.00         8.93        3.232       16.202
   W component            -11.38         0.00        12.01        3.232       16.202
   Horizontal (U&V)        10.34        20.21        32.41        3.197       15.817
   Total                   10.34        20.47        32.44        3.189       15.583

                       Min Reynolds     Mean Reynolds    Max Reynolds    Correlation
   Product             Stress (m/s)^2   Stress (m/s)^2   Stress (m/s)^2  Coefficient
   ----------------    --------------   --------------   --------------  -----------
   u'w'                    -57.559             0.091            50.820         0.009
   u'v'                    -42.679             1.055            85.487         0.102
   v'w'                    -82.215            -0.609            46.966        -0.058


   Friction Velocity (Ustar)  =      0.302 m/s
   Maximum Instantaneous TKE  =     88.315 (m/s)^2
   Maximum Instantaneous CTKE =     45.874 (m/s)^2


Grid Point Variance Summary:

   Y-coord -150.00 -141.43 -132.86 -124.29 -115.71 -107.14  -98.57  -90.00  -81.43  -72.86  -64.29  -55.71  -47.14  -38.57  -30.00  -21.43  -12.86   -4.29    4.29   12.86   21.43   30.00   38.57   47.14   55.71   64.29   72.86   81.43   90.00   98.57  107.14  115.71  124.29  132.86  141.43  150.00

   Height   Standard deviation at grid points for the u component:
   301.00    2.905   2.955   2.870   2.854   3.124   3.155   3.302   3.218   3.191   3.258   3.539   3.368   3.176   3.212   3.165   3.242   3.221   3.323   3.073   2.983   3.094   3.267   2.912   2.957   2.847   2.951   3.014   2.950   2.782   2.771   2.881   2.951   2.852   3.016   3.175   3.149
   292.43    2.724   2.945   2.828   2.879   3.067   3.130   3.190   3.226   3.336   3.236   3.439   3.349   3.197   3.174   3.237   3.168   3.179   3.098   2.945   3.010   3.089   3.006   3.015   2.852   2.934   2.898   2.907   2.834   2.762   2.831   2.930   3.001   3.062   3.096   3.372   3.220
   283.86    3.075   3.015   3.039   2.975   3.043   3.152   3.157   3.247   3.323   3.429   3.417   3.207   3.269   3.083   3.057   3.265   3.105   3.064   2.832   2.949   3.177   3.049   2.995   2.834   2.769   2.764   2.958   3.004   2.974   2.893   2.900   2.850   2.964   3.132   3.280   3.239
   275.29    3.046   3.050   3.108   2.899   3.022   2.943   3.185   3.129   3.219   3.280   3.145   3.117   3.159   3.046   3.192   3.179   3.126   3.188   3.039   3.023   3.039   2.950   2.969   2.909   2.873   2.738   2.966   2.932   2.855   2.957   2.917   2.959   3.078   3.142   3.090   3.160
   266.71    2.974   2.993   3.005   3.050   3.155   3.121   3.072   3.009   3.111   3.111   3.036   3.108   3.116   3.081   2.966   3.061   3.135   3.119   3.142   3.236   3.228   3.048   2.979   3.007   2.841   2.797   2.787   3.013   3.038   2.990   3.002   2.991   2.927   2.980   3.152   3.085
   258.14    3.002   2.896   3.026   3.083   3.049   2.979   3.074   2.923   2.901   2.919   2.832   3.155   3.056   3.061   2.922   3.002   3.060   3.160   3.149   3.314   3.246   2.958   2.948   2.926   2.935   2.797   2.724   3.004   3.123   3.136   2.937   3.035   2.963   3.056   3.197   3.245
   249.57    3.095   3.001   3.141   2.947   3.040   3.223   3.073   2.822   2.879   2.844   2.819   3.034   3.070   2.966   2.895   2.882   2.975   3.036   3.006   3.106   2.958   3.119   2.937   3.094   2.969   2.879   2.908   2.904   2.847   2.798   2.906   3.037   3.048   3.143   3.388   3.429
   241.00    3.249   3.198   3.040   3.014   3.049   3.059   3.069   2.856   2.834   2.937   2.978   2.877   2.896   3.093   2.933   2.903   2.980   3.045   3.152   3.006   2.989   3.042   2.932   3.132   2.962   2.754   2.814   2.875   2.732   2.879   2.948   3.052   2.969   3.093   3.285   3.306
   232.43    3.214   3.164   3.203   3.008   3.028   2.950   2.953   2.967   3.004   3.051   2.879   2.797   2.830   2.862   2.878   2.793   2.886   2.976   2.959   2.849   2.937   2.936   2.914   3.092   2.941   2.954   2.863   2.972   2.939   2.872   3.057   3.036   2.965   3.205   3.260   3.278
   223.86    3.289   3.185   3.204   3.150   2.960   3.089   2.854   3.008   3.130   3.073   2.782   2.720   2.794   2.953   2.792   2.852   2.845   2.772   2.782   2.889   2.774   2.976   2.802   2.938   3.093   3.127   2.958   2.884   2.881   2.912   2.901   3.110   2.954   3.035   3.146   3.225
   215.29    3.113   3.164   3.188   3.110   3.055   2.911   2.866   2.962   3.095   3.032   3.004   2.929   2.971   2.865   2.879   2.944   3.056   2.847   2.934   2.932   3.059   3.017   3.115   3.000   3.087   3.077   3.038   2.996   3.041   2.999   3.031   3.203   2.971   3.010   3.241   3.154
   206.71    3.254   3.085   2.960   3.044   2.917   2.914   2.942   3.156   3.141   2.929   2.924   3.154   3.130   2.992   3.021   2.907   3.026   2.921   2.863   2.935   2.904   3.010   3.230   3.142   3.239   3.197   3.270   3.021   3.139   3.213   3.162   3.176   3.065   3.105   3.079   3.095
   198.14    3.054   3.100   2.883   3.148   3.116   3.132   3.145   3.135   3.116   2.911   3.128   3.074   2.998   2.987   3.046   3.059   3.022   3.061   2.878   3.034   2.966   3.028   3.390   3.401   3.341   3.146   3.066   2.956   2.959   3.276   3.183   3.118   2.973   3.082   3.237   3.121
   189.57    3.162   3.027   3.024   3.189   3.160   3.096   3.141   3.006   3.108   2.995   3.044   2.912   2.866   2.970   2.931   2.943   3.087   3.160   3.067   3.204   3.078   3.071   3.252   3.335   3.410   3.244   3.294   3.053   3.168   3.233   3.227   3.178   3.046   2.991   3.121   3.061
   181.00    3.058   2.942   3.094   3.250   3.034   3.167   3.165   2.925   3.037   3.005   3.160   3.066   2.964   3.063   3.211   3.074   3.102   3.213   3.165   3.156   3.131   3.219   3.304   3.352   3.358   3.238   3.118   3.073   3.172   3.137   3.082   3.004   3.066   3.004   2.903   2.992
   172.43    3.209   3.050   3.082   3.106   3.042   3.079   3.210   3.018   2.932   3.032   3.205   3.092   3.185   3.137   3.197   3.116   3.005   3.201   3.340   3.383   3.006   3.195   3.199   3.213   3.239   3.177   3.263   3.224   3.125   3.076   3.042   3.136   3.130   3.059   3.030   3.058
   163.86    3.239   3.065   3.027   3.245   3.044   3.180   3.118   3.075   2.967   3.206   3.054   3.212   3.177   3.155   3.159   3.100   2.993   3.069   3.178   3.158   3.168   3.213   3.256   3.181   3.255   3.189   3.236   3.234   3.158   3.099   3.024   3.303   3.129   3.131   3.241   3.215
   155.29    3.078   3.214   3.194   3.117   3.043   3.138   2.958   3.032   3.088   3.147   3.312   3.222   3.196   3.238   3.193   2.983   3.010   3.107   3.153   3.124   3.236   3.209   3.253   3.331   3.188   3.321   3.340   3.210   3.042   3.019   2.934   3.045   3.224   3.169   3.205   3.169
   146.71    3.211   3.239   3.016   2.947   3.049   2.892   2.959   2.949   3.053   3.179   3.143   3.317   3.231   3.253   3.063   3.002   3.029   2.995   3.294   3.197   3.223   3.197   3.077   3.196   3.325   3.418   3.509   3.368   3.223   3.170   3.078   3.017   3.177   3.277   3.213   3.120
   138.14    3.099   3.060   3.077   2.913   2.943   3.003   3.013   2.996   3.114   3.245   3.442   3.322   3.253   3.266   3.234   3.054   2.986   3.054   3.264   3.116   3.118   3.116   3.154   3.211   3.386   3.358   3.343   3.441   3.169   3.095   3.279   3.152   3.068   3.114   3.233   3.134
   129.57    3.096   2.932   3.042   2.839   2.988   3.076   3.137   3.008   2.942   2.955   3.212   3.119   3.106   3.231   3.143   3.024   2.985   3.049   3.186   2.968   2.997   3.215   3.056   3.038   3.275   3.289   3.279   3.305   3.277   3.288   3.170   3.094   3.163   3.003   3.086   3.173
   121.00    2.750   2.783   2.790   2.798   2.939   3.035   3.183   3.017   2.861   3.031   2.924   2.993   3.011   3.151   2.935   2.895   2.862   2.896   3.070   2.966   2.946   3.009   2.917   2.970   3.131   3.314   3.353   3.183   3.311   3.416   3.307   3.351   3.242   3.062   2.940   3.142
   112.43    2.884   2.725   2.815   2.854   2.925   3.018   3.142   3.095   3.101   3.124   3.108   2.984   3.044   3.168   2.969   2.828   2.931   2.949   2.904   2.825   3.013   2.880   2.810   3.001   3.117   3.191   3.313   3.266   3.362   3.444   3.279   3.173   3.284   3.176   3.147   3.296
   103.86    2.883   2.966   3.075   2.924   2.963   3.041   3.165   3.185   3.240   3.104   3.095   2.991   3.044   3.137   3.167   3.194   2.884   2.951   2.951   2.883   2.976   2.991   3.044   3.360   3.129   3.184   3.227   3.112   3.397   3.342   3.170   3.239   3.147   3.238   3.121   3.334
    95.29    2.924   2.869   3.072   3.155   3.086   3.164   3.056   3.088   3.108   3.010   2.828   2.952   3.006   3.056   3.038   2.984   3.110   2.965   3.012   2.995   3.205   3.211   3.191   3.109   3.227   3.151   3.177   3.270   3.208   3.161   3.257   3.157   3.150   3.123   3.125   3.235
    86.71    3.046   2.994   3.069   3.093   3.190   3.352   3.067   3.083   3.193   2.998   2.744   2.716   2.857   2.928   2.794   3.060   3.131   3.030   3.180   3.017   3.207   3.303   3.219   3.243   3.267   3.371   3.342   3.297   3.106   3.085   2.967   3.048   3.154   3.095   3.121   3.125
    78.14    3.090   3.075   3.145   3.180   3.154   3.182   3.013   3.012   3.076   3.179   2.841   2.768   2.871   2.914   2.922   2.968   3.027   3.044   3.047   3.045   3.253   3.270   3.307   3.250   3.272   3.188   3.272   2.941   3.082   3.092   3.104   3.037   3.126   3.163   3.111   3.136
    69.57    3.310   3.177   3.040   3.117   3.101   3.305   3.143   3.048   2.888   2.991   2.913   2.778   2.866   3.010   3.011   2.937   2.799   2.900   2.903   3.124   3.289   3.297   3.287   3.265   3.280   3.245   3.194   3.225   3.192   3.286   3.083   3.133   3.062   3.192   3.083   3.068
    61.00    3.348   3.259   3.142   3.166   3.182   3.304   3.121   3.124   3.115   2.944   2.917   2.830   2.859   2.929   2.982   3.091   3.056   2.994   3.209   3.162   3.175   3.143   3.029   3.121   3.092   3.084   3.260   3.158   3.267   3.081   3.112   3.108   3.117   3.136   3.205   3.218
    52.43    3.343   3.281   3.403   3.273   3.260   3.225   3.120   3.046   3.194   3.025   2.950   2.860   2.959   2.860   3.044   2.985   2.970   3.035   3.115   2.998   3.137   3.136   3.152   3.076   3.048   3.069   3.246   3.173   3.142   3.096   3.031   3.161   3.038   3.145   3.173   3.207
    43.86    3.243   3.285   3.275   3.233   3.094   3.274   3.239   3.035   3.106   3.157   3.127   2.925   2.969   3.159   3.147   3.039   3.176   3.140   3.044   3.142   3.212   3.206   3.286   3.181   3.049   3.015   3.096   3.243   2.961   3.006   2.955   3.055   3.083   3.166   3.004   3.088
    35.29    3.352   3.335   3.381   3.220   3.126   3.265   3.156   3.117   3.022   3.047   3.051   2.977   3.136   3.159   3.255   2.973   3.067   3.331   3.059   3.184   3.254   3.247   3.369   3.195   3.019   3.091   3.092   3.244   3.269   3.125   3.126   3.152   2.997   3.034   3.185   3.238
    26.71    3.220   3.387   3.401   3.350   3.241   3.203   3.066   2.993   3.112   3.131   3.104   3.141   3.138   3.383   3.224   3.217   3.111   3.321   3.177   3.189   3.249   3.319   3.278   3.222   3.335   3.104   3.207   3.189   3.126   3.097   3.191   3.080   3.020   3.031   2.987   3.133
    18.14    3.268   3.292   3.388   3.269   3.219   3.124   2.958   3.033   3.010   3.167   3.143   3.293   3.464   3.382   3.260   3.263   3.214   3.356   3.323   3.444   3.153   3.246   3.144   3.197   3.171   3.211   3.261   3.110   3.194   2.948   3.044   3.057   2.973   2.958   2.948   3.047
     9.57    3.174   3.105   3.353   3.340   3.306   3.136   3.068   2.990   3.242   3.250   3.160   3.197   3.291   3.601   3.403   3.442   3.415   3.496   3.453   3.325   3.303   3.245   3.294   3.241   3.187   3.079   3.110   3.122   3.273   3.029   2.924   2.989   2.982   3.161   3.147   3.274
     1.00    3.224   3.244   3.247   3.178   3.132   3.063   3.358   3.274   3.209   3.200   3.365   3.331   3.353   3.469   3.348   3.507   3.489   3.406   3.463   3.336   3.264   3.195   3.169   3.174   3.217   3.120   3.125   3.233   3.328   3.235   2.981   2.990   3.095   3.209   3.132   3.126

   Height   Standard deviation at grid points for the v component:
   301.00    3.232   3.232   3.232   3.232   3.232   3.232   3.232   3.232   3.232   3.232   3.232   3.232   3.232   3.232   3.232   3.232   3.232   3.232   3.232   3.232   3.232   3.232   3.232   3.232   3.232   3.232   3.232   3.232   3.232   3.232   3.232   3.232   3.232   3.232   3.232   3.232
   292.43    3.232   3.232   3.232   3.232   3.232   3.232   3.232   3.232   3.232   3.232   3.232   3.232   3.232   3.232   3.232   3.232   3.232   3.232   3.232   3.232   3.232   3.232   3.232   3.232   3.232   3.232   3.232   3.232   3.232   3.232   3.232   3.232   3.232   3.232   3.232   3.232
   283.86    3.232   3.232   3.232   3.232   3.232   3.232   3.232   3.232   3.232   3.232   3.232   3.232   3.232   3.232   3.232   3.232   3.232   3.232   3.232   3.232   3.232   3.232   3.232   3.232   3.232   3.232   3.232   3.232   3.232   3.232   3.232   3.232   3.232   3.232   3.232   3.232
   275.29    3.232   3.232   3.232   3.232   3.232   3.232   3.232   3.232   3.232   3.232   3.232   3.232   3.232   3.232   3.232   3.232   3.232   3.232   3.232   3.232   3.232   3.232   3.232   3.232   3.232   3.232   3.232   3.232   3.232   3.232   3.232   3.232   3.232   3.232   3.232   3.232
   266.71    3.232   3.232   3.232   3.232   3.232   3.232   3.232   3.232   3.232   3.232   3.232   3.232   3.232   3.232   3.232   3.232   3.232   3.232   3.232   3.232   3.232   3.232   3.232   3.232   3.232   3.232   3.232   3.232   3.232   3.232   3.232   3.232   3.232   3.232   3.232   3.232
   258.14    3.232   3.232   3.232   3.232   3.232   3.232   3.232   3.232   3.232   3.232   3.232   3.232   3.232   3.232   3.232   3.232   3.232   3.232   3.232   3.232   3.232   3.232   3.232   3.232   3.232   3.232   3.232   3.232   3.232   3.232   3.232   3.232   3.232   3.232   3.232   3.232
   249.57    3.232   3.232   3.232   3.232   3.232   3.232   3.232   3.232   3.232   3.232   3.232   3.232   3.232   3.232   3.232   3.232   3.232   3.232   3.232   3.232   3.232   3.232   3.232   3.232   3.232   3.232   3.232   3.232   3.232   3.232   3.232   3.232   3.232   3.232   3.232   3.232
   241.00    3.232   3.232   3.232   3.232   3.232   3.232   3.232   3.232   3.232   3.232   3.232   3.232   3.232   3.232   3.232   3.232   3.232   3.232   3.232   3.232   3.232   3.232   3.232   3.232   3.232   3.232   3.232   3.232   3.232   3.232   3.232   3.232   3.232   3.232   3.232   3.232
   232.43    3.232   3.232   3.232   3.232   3.232   3.232   3.232   3.232   3.232   3.232   3.232   3.232   3.232   3.232   3.232   3.232   3.232   3.232   3.232   3.232   3.232   3.232   3.232   3.232   3.232   3.232   3.232   3.232   3.232   3.232   3.232   3.232   3.232   3.232   3.232   3.232
   223.86    3.232   3.232   3.232   3.232   3.232   3.232   3.232   3.232   3.232   3.232   3.232   3.232   3.232   3.232   3.232   3.232   3.232   3.232   3.232   3.232   3.232   3.232   3.232   3.232   3.232   3.232   3.232   3.232   3.232   3.232   3.232   3.232   3.232   3.232   3.232   3.232
   215.29    3.232   3.232   3.232   3.232   3.232   3.232   3.232   3.232   3.232   3.232   3.232   3.232   3.232   3.232   3.232   3.232   3.232   3.232   3.232   3.232   3.232   3.232   3.232   3.232   3.232   3.232   3.232   3.232   3.232   3.232   3.232   3.232   3.232   3.232   3.232   3.232
   206.71    3.232   3.232   3.232   3.232   3.232   3.232   3.232   3.232   3.232   3.232   3.232   3.232   3.232   3.232   3.232   3.232   3.232   3.232   3.232   3.232   3.232   3.232   3.232   3.232   3.232   3.232   3.232   3.232   3.232   3.232   3.232   3.232   3.232   3.232   3.232   3.232
   198.14    3.232   3.232   3.232   3.232   3.232   3.232   3.232   3.232   3.232   3.232   3.232   3.232   3.232   3.232   3.232   3.232   3.232   3.232   3.232   3.232   3.232   3.232   3.232   3.232   3.232   3.232   3.232   3.232   3.232   3.232   3.232   3.232   3.232   3.232   3.232   3.232
   189.57    3.232   3.232   3.232   3.232   3.232   3.232   3.232   3.232   3.232   3.232   3.232   3.232   3.232   3.232   3.232   3.232   3.232   3.232   3.232   3.232   3.232   3.232   3.232   3.232   3.232   3.232   3.232   3.232   3.232   3.232   3.232   3.232   3.232   3.232   3.232   3.232
   181.00    3.232   3.232   3.232   3.232   3.232   3.232   3.232   3.232   3.232   3.232   3.232   3.232   3.232   3.232   3.232   3.232   3.232   3.232   3.232   3.232   3.232   3.232   3.232   3.232   3.232   3.232   3.232   3.232   3.232   3.232   3.232   3.232   3.232   3.232   3.232   3.232
   172.43    3.232   3.232   3.232   3.232   3.232   3.232   3.232   3.232   3.232   3.232   3.232   3.232   3.232   3.232   3.232   3.232   3.232   3.232   3.232   3.232   3.232   3.232   3.232   3.232   3.232   3.232   3.232   3.232   3.232   3.232   3.232   3.232   3.232   3.232   3.232   3.232
   163.86    3.232   3.232   3.232   3.232   3.232   3.232   3.232   3.232   3.232   3.232   3.232   3.232   3.232   3.232   3.232   3.232   3.232   3.232   3.232   3.232   3.232   3.232   3.232   3.232   3.232   3.232   3.232   3.232   3.232   3.232   3.232   3.232   3.232   3.232   3.232   3.232
   155.29    3.232   3.232   3.232   3.232   3.232   3.232   3.232   3.232   3.232   3.232   3.232   3.232   3.232   3.232   3.232   3.232   3.232   3.232   3.232   3.232   3.232   3.232   3.232   3.232   3.232   3.232   3.232   3.232   3.232   3.232   3.232   3.232   3.232   3.232   3.232   3.232
   146.71    3.232   3.232   3.232   3.232   3.232   3.232   3.232   3.232   3.232   3.232   3.232   3.232   3.232   3.232   3.232   3.232   3.232   3.232   3.232   3.232   3.232   3.232   3.232   3.232   3.232   3.232   3.232   3.232   3.232   3.232   3.232   3.232   3.232   3.232   3.232   3.232
   138.14    3.232   3.232   3.232   3.232   3.232   3.232   3.232   3.232   3.232   3.232   3.232   3.232   3.232   3.232   3.232   3.232   3.232   3.232   3.232   3.232   3.232   3.232   3.232   3.232   3.232   3.232   3.232   3.232   3.232   3.232   3.232   3.232   3.232   3.232   3.232   3.232
   129.57    3.232   3.232   3.232   3.232   3.232   3.232   3.232   3.232   3.232   3.232   3.232   3.232   3.232   3.232   3.232   3.232   3.232   3.232   3.232   3.232   3.232   3.232   3.232   3.232   3.232   3.232   3.232   3.232   3.232   3.232   3.232   3.232   3.232   3.232   3.232   3.232
   121.00    3.232   3.232   3.232   3.232   3.232   3.232   3.232   3.232   3.232   3.232   3.232   3.232   3.232   3.232   3.232   3.232   3.232   3.232   3.232   3.232   3.232   3.232   3.232   3.232   3.232   3.232   3.232   3.232   3.232   3.232   3.232   3.232   3.232   3.232   3.232   3.232
   112.43    3.232   3.232   3.232   3.232   3.232   3.232   3.232   3.232   3.232   3.232   3.232   3.232   3.232   3.232   3.232   3.232   3.232   3.232   3.232   3.232   3.232   3.232   3.232   3.232   3.232   3.232   3.232   3.232   3.232   3.232   3.232   3.232   3.232   3.232   3.232   3.232
   103.86    3.232   3.232   3.232   3.232   3.232   3.232   3.232   3.232   3.232   3.232   3.232   3.232   3.232   3.232   3.232   3.232   3.232   3.232   3.232   3.232   3.232   3.232   3.232   3.232   3.232   3.232   3.232   3.232   3.232   3.232   3.232   3.232   3.232   3.232   3.232   3.232
    95.29    3.232   3.232   3.232   3.232   3.232   3.232   3.232   3.232   3.232   3.232   3.232   3.232   3.232   3.232   3.232   3.232   3.232   3.232   3.232   3.232   3.232   3.232   3.232   3.232   3.232   3.232   3.232   3.232   3.232   3.232   3.232   3.232   3.232   3.232   3.232   3.232
    86.71    3.232   3.232   3.232   3.232   3.232   3.232   3.232   3.232   3.232   3.232   3.232   3.232   3.232   3.232   3.232   3.232   3.232   3.232   3.232   3.232   3.232   3.232   3.232   3.232   3.232   3.232   3.232   3.232   3.232   3.232   3.232   3.232   3.232   3.232   3.232   3.232
    78.14    3.232   3.232   3.232   3.232   3.232   3.232   3.232   3.232   3.232   3.232   3.232   3.232   3.232   3.232   3.232   3.232   3.232   3.232   3.232   3.232   3.232   3.232   3.232   3.232   3.232   3.232   3.232   3.232   3.232   3.232   3.232   3.232   3.232   3.232   3.232   3.232
    69.57    3.232   3.232   3.232   3.232   3.232   3.232   3.232   3.232   3.232   3.232   3.232   3.232   3.232   3.232   3.232   3.232   3.232   3.232   3.232   3.232   3.232   3.232   3.232   3.232   3.232   3.232   3.232   3.232   3.232   3.232   3.232   3.232   3.232   3.232   3.232   3.232
    61.00    3.232   3.232   3.232   3.232   3.232   3.232   3.232   3.232   3.232   3.232   3.232   3.232   3.232   3.232   3.232   3.232   3.232   3.232   3.232   3.232   3.232   3.232   3.232   3.232   3.232   3.232   3.232   3.232   3.232   3.232   3.232   3.232   3.232   3.232   3.232   3.232
    52.43    3.232   3.232   3.232   3.232   3.232   3.232   3.232   3.232   3.232   3.232   3.232   3.232   3.232   3.232   3.232   3.232   3.232   3.232   3.232   3.232   3.232   3.232   3.232   3.232   3.232   3.232   3.232   3.232   3.232   3.232   3.232   3.232   3.232   3.232   3.232   3.232
    43.86    3.232   3.232   3.232   3.232   3.232   3.232   3.232   3.232   3.232   3.232   3.232   3.232   3.232   3.232   3.232   3.232   3.232   3.232   3.232   3.232   3.232   3.232   3.232   3.232   3.232   3.232   3.232   3.232   3.232   3.232   3.232   3.232   3.232   3.232   3.232   3.232
    35.29    3.232   3.232   3.232   3.232   3.232   3.232   3.232   3.232   3.232   3.232   3.232   3.232   3.232   3.232   3.232   3.232   3.232   3.232   3.232   3.232   3.232   3.232   3.232   3.232   3.232   3.232   3.232   3.232   3.232   3.232   3.232   3.232   3.232   3.232   3.232   3.232
    26.71    3.232   3.232   3.232   3.232   3.232   3.232   3.232   3.232   3.232   3.232   3.232   3.232   3.232   3.232   3.232   3.232   3.232   3.232   3.232   3.232   3.232   3.232   3.232   3.232   3.232   3.232   3.232   3.232   3.232   3.232   3.232   3.232   3.232   3.232   3.232   3.232
    18.14    3.232   3.232   3.232   3.232   3.232   3.232   3.232   3.232   3.232   3.232   3.232   3.232   3.232   3.232   3.232   3.232   3.232   3.232   3.232   3.232   3.232   3.232   3.232   3.232   3.232   3.232   3.232   3.232   3.232   3.232   3.232   3.232   3.232   3.232   3.232   3.232
     9.57    3.232   3.232   3.232   3.232   3.232   3.232   3.232   3.232   3.232   3.232   3.232   3.232   3.232   3.232   3.232   3.232   3.232   3.232   3.232   3.232   3.232   3.232   3.232   3.232   3.232   3.232   3.232   3.232   3.232   3.232   3.232   3.232   3.232   3.232   3.232   3.232
     1.00    3.232   3.232   3.232   3.232   3.232   3.232   3.232   3.232   3.232   3.232   3.232   3.232   3.232   3.232   3.232   3.232   3.232   3.232   3.232   3.232   3.232   3.232   3.232   3.232   3.232   3.232   3.232   3.232   3.232   3.232   3.232   3.232   3.232   3.232   3.232   3.232

   Height   Standard deviation at grid points for the w component:
   301.00    3.232   3.232   3.232   3.232   3.232   3.232   3.232   3.232   3.232   3.232   3.232   3.232   3.232   3.232   3.232   3.232   3.232   3.232   3.232   3.232   3.232   3.232   3.232   3.232   3.232   3.232   3.232   3.232   3.232   3.232   3.232   3.232   3.232   3.232   3.232   3.232
   292.43    3.232   3.232   3.232   3.232   3.232   3.232   3.232   3.232   3.232   3.232   3.232   3.232   3.232   3.232   3.232   3.232   3.232   3.232   3.232   3.232   3.232   3.232   3.232   3.232   3.232   3.232   3.232   3.232   3.232   3.232   3.232   3.232   3.232   3.232   3.232   3.232
   283.86    3.232   3.232   3.232   3.232   3.232   3.232   3.232   3.232   3.232   3.232   3.232   3.232   3.232   3.232   3.232   3.232   3.232   3.232   3.232   3.232   3.232   3.232   3.232   3.232   3.232   3.232   3.232   3.232   3.232   3.232   3.232   3.232   3.232   3.232   3.232   3.232
   275.29    3.232   3.232   3.232   3.232   3.232   3.232   3.232   3.232   3.232   3.232   3.232   3.232   3.232   3.232   3.232   3.232   3.232   3.232   3.232   3.232   3.232   3.232   3.232   3.232   3.232   3.232   3.232   3.232   3.232   3.232   3.232   3.232   3.232   3.232   3.232   3.232
   266.71    3.232   3.232   3.232   3.232   3.232   3.232   3.232   3.232   3.232   3.232   3.232   3.232   3.232   3.232   3.232   3.232   3.232   3.232   3.232   3.232   3.232   3.232   3.232   3.232   3.232   3.232   3.232   3.232   3.232   3.232   3.232   3.232   3.232   3.232   3.232   3.232
   258.14    3.232   3.232   3.232   3.232   3.232   3.232   3.232   3.232   3.232   3.232   3.232   3.232   3.232   3.232   3.232   3.232   3.232   3.232   3.232   3.232   3.232   3.232   3.232   3.232   3.232   3.232   3.232   3.232   3.232   3.232   3.232   3.232   3.232   3.232   3.232   3.232
   249.57    3.232   3.232   3.232   3.232   3.232   3.232   3.232   3.232   3.232   3.232   3.232   3.232   3.232   3.232   3.232   3.232   3.232   3.232   3.232   3.232   3.232   3.232   3.232   3.232   3.232   3.232   3.232   3.232   3.232   3.232   3.232   3.232   3.232   3.232   3.232   3.232
   241.00    3.232   3.232   3.232   3.232   3.232   3.232   3.232   3.232   3.232   3.232   3.232   3.232   3.232   3.232   3.232   3.232   3.232   3.232   3.232   3.232   3.232   3.232   3.232   3.232   3.232   3.232   3.232   3.232   3.232   3.232   3.232   3.232   3.232   3.232   3.232   3.232
   232.43    3.232   3.232   3.232   3.232   3.232   3.232   3.232   3.232   3.232   3.232   3.232   3.232   3.232   3.232   3.232   3.232   3.232   3.232   3.232   3.232   3.232   3.232   3.232   3.232   3.232   3.232   3.232   3.232   3.232   3.232   3.232   3.232   3.232   3.232   3.232   3.232
   223.86    3.232   3.232   3.232   3.232   3.232   3.232   3.232   3.232   3.232   3.232   3.232   3.232   3.232   3.232   3.232   3.232   3.232   3.232   3.232   3.232   3.232   3.232   3.232   3.232   3.232   3.232   3.232   3.232   3.232   3.232   3.232   3.232   3.232   3.232   3.232   3.232
   215.29    3.232   3.232   3.232   3.232   3.232   3.232   3.232   3.232   3.232   3.232   3.232   3.232   3.232   3.232   3.232   3.232   3.232   3.232   3.232   3.232   3.232   3.232   3.232   3.232   3.232   3.232   3.232   3.232   3.232   3.232   3.232   3.232   3.232   3.232   3.232   3.232
   206.71    3.232   3.232   3.232   3.232   3.232   3.232   3.232   3.232   3.232   3.232   3.232   3.232   3.232   3.232   3.232   3.232   3.232   3.232   3.232   3.232   3.232   3.232   3.232   3.232   3.232   3.232   3.232   3.232   3.232   3.232   3.232   3.232   3.232   3.232   3.232   3.232
   198.14    3.232   3.232   3.232   3.232   3.232   3.232   3.232   3.232   3.232   3.232   3.232   3.232   3.232   3.232   3.232   3.232   3.232   3.232   3.232   3.232   3.232   3.232   3.232   3.232   3.232   3.232   3.232   3.232   3.232   3.232   3.232   3.232   3.232   3.232   3.232   3.232
   189.57    3.232   3.232   3.232   3.232   3.232   3.232   3.232   3.232   3.232   3.232   3.232   3.232   3.232   3.232   3.232   3.232   3.232   3.232   3.232   3.232   3.232   3.232   3.232   3.232   3.232   3.232   3.232   3.232   3.232   3.232   3.232   3.232   3.232   3.232   3.232   3.232
   181.00    3.232   3.232   3.232   3.232   3.232   3.232   3.232   3.232   3.232   3.232   3.232   3.232   3.232   3.232   3.232   3.232   3.232   3.232   3.232   3.232   3.232   3.232   3.232   3.232   3.232   3.232   3.232   3.232   3.232   3.232   3.232   3.232   3.232   3.232   3.232   3.232
   172.43    3.232   3.232   3.232   3.232   3.232   3.232   3.232   3.232   3.232   3.232   3.232   3.232   3.232   3.232   3.232   3.232   3.232   3.232   3.232   3.232   3.232   3.232   3.232   3.232   3.232   3.232   3.232   3.232   3.232   3.232   3.232   3.232   3.232   3.232   3.232   3.232
   163.86    3.232   3.232   3.232   3.232   3.232   3.232   3.232   3.232   3.232   3.232   3.232   3.232   3.232   3.232   3.232   3.232   3.232   3.232   3.232   3.232   3.232   3.232   3.232   3.232   3.232   3.232   3.232   3.232   3.232   3.232   3.232   3.232   3.232   3.232   3.232   3.232
   155.29    3.232   3.232   3.232   3.232   3.232   3.232   3.232   3.232   3.232   3.232   3.232   3.232   3.232   3.232   3.232   3.232   3.232   3.232   3.232   3.232   3.232   3.232   3.232   3.232   3.232   3.232   3.232   3.232   3.232   3.232   3.232   3.232   3.232   3.232   3.232   3.232
   146.71    3.232   3.232   3.232   3.232   3.232   3.232   3.232   3.232   3.232   3.232   3.232   3.232   3.232   3.232   3.232   3.232   3.232   3.232   3.232   3.232   3.232   3.232   3.232   3.232   3.232   3.232   3.232   3.232   3.232   3.232   3.232   3.232   3.232   3.232   3.232   3.232
   138.14    3.232   3.232   3.232   3.232   3.232   3.232   3.232   3.232   3.232   3.232   3.232   3.232   3.232   3.232   3.232   3.232   3.232   3.232   3.232   3.232   3.232   3.232   3.232   3.232   3.232   3.232   3.232   3.232   3.232   3.232   3.232   3.232   3.232   3.232   3.232   3.232
   129.57    3.232   3.232   3.232   3.232   3.232   3.232   3.232   3.232   3.232   3.232   3.232   3.232   3.232   3.232   3.232   3.232   3.232   3.232   3.232   3.232   3.232   3.232   3.232   3.232   3.232   3.232   3.232   3.232   3.232   3.232   3.232   3.232   3.232   3.232   3.232   3.232
   121.00    3.232   3.232   3.232   3.232   3.232   3.232   3.232   3.232   3.232   3.232   3.232   3.232   3.232   3.232   3.232   3.232   3.232   3.232   3.232   3.232   3.232   3.232   3.232   3.232   3.232   3.232   3.232   3.232   3.232   3.232   3.232   3.232   3.232   3.232   3.232   3.232
   112.43    3.232   3.232   3.232   3.232   3.232   3.232   3.232   3.232   3.232   3.232   3.232   3.232   3.232   3.232   3.232   3.232   3.232   3.232   3.232   3.232   3.232   3.232   3.232   3.232   3.232   3.232   3.232   3.232   3.232   3.232   3.232   3.232   3.232   3.232   3.232   3.232
   103.86    3.232   3.232   3.232   3.232   3.232   3.232   3.232   3.232   3.232   3.232   3.232   3.232   3.232   3.232   3.232   3.232   3.232   3.232   3.232   3.232   3.232   3.232   3.232   3.232   3.232   3.232   3.232   3.232   3.232   3.232   3.232   3.232   3.232   3.232   3.232   3.232
    95.29    3.232   3.232   3.232   3.232   3.232   3.232   3.232   3.232   3.232   3.232   3.232   3.232   3.232   3.232   3.232   3.232   3.232   3.232   3.232   3.232   3.232   3.232   3.232   3.232   3.232   3.232   3.232   3.232   3.232   3.232   3.232   3.232   3.232   3.232   3.232   3.232
    86.71    3.232   3.232   3.232   3.232   3.232   3.232   3.232   3.232   3.232   3.232   3.232   3.232   3.232   3.232   3.232   3.232   3.232   3.232   3.232   3.232   3.232   3.232   3.232   3.232   3.232   3.232   3.232   3.232   3.232   3.232   3.232   3.232   3.232   3.232   3.232   3.232
    78.14    3.232   3.232   3.232   3.232   3.232   3.232   3.232   3.232   3.232   3.232   3.232   3.232   3.232   3.232   3.232   3.232   3.232   3.232   3.232   3.232   3.232   3.232   3.232   3.232   3.232   3.232   3.232   3.232   3.232   3.232   3.232   3.232   3.232   3.232   3.232   3.232
    69.57    3.232   3.232   3.232   3.232   3.232   3.232   3.232   3.232   3.232   3.232   3.232   3.232   3.232   3.232   3.232   3.232   3.232   3.232   3.232   3.232   3.232   3.232   3.232   3.232   3.232   3.232   3.232   3.232   3.232   3.232   3.232   3.232   3.232   3.232   3.232   3.232
    61.00    3.232   3.232   3.232   3.232   3.232   3.232   3.232   3.232   3.232   3.232   3.232   3.232   3.232   3.232   3.232   3.232   3.232   3.232   3.232   3.232   3.232   3.232   3.232   3.232   3.232   3.232   3.232   3.232   3.232   3.232   3.232   3.232   3.232   3.232   3.232   3.232
    52.43    3.232   3.232   3.232   3.232   3.232   3.232   3.232   3.232   3.232   3.232   3.232   3.232   3.232   3.232   3.232   3.232   3.232   3.232   3.232   3.232   3.232   3.232   3.232   3.232   3.232   3.232   3.232   3.232   3.232   3.232   3.232   3.232   3.232   3.232   3.232   3.232
    43.86    3.232   3.232   3.232   3.232   3.232   3.232   3.232   3.232   3.232   3.232   3.232   3.232   3.232   3.232   3.232   3.232   3.232   3.232   3.232   3.232   3.232   3.232   3.232   3.232   3.232   3.232   3.232   3.232   3.232   3.232   3.232   3.232   3.232   3.232   3.232   3.232
    35.29    3.232   3.232   3.232   3.232   3.232   3.232   3.232   3.232   3.232   3.232   3.232   3.232   3.232   3.232   3.232   3.232   3.232   3.232   3.232   3.232   3.232   3.232   3.232   3.232   3.232   3.232   3.232   3.232   3.232   3.232   3.232   3.232   3.232   3.232   3.232   3.232
    26.71    3.232   3.232   3.232   3.232   3.232   3.232   3.232   3.232   3.232   3.232   3.232   3.232   3.232   3.232   3.232   3.232   3.232   3.232   3.232   3.232   3.232   3.232   3.232   3.232   3.232   3.232   3.232   3.232   3.232   3.232   3.232   3.232   3.232   3.232   3.232   3.232
    18.14    3.232   3.232   3.232   3.232   3.232   3.232   3.232   3.232   3.232   3.232   3.232   3.232   3.232   3.232   3.232   3.232   3.232   3.232   3.232   3.232   3.232   3.232   3.232   3.232   3.232   3.232   3.232   3.232   3.232   3.232   3.232   3.232   3.232   3.232   3.232   3.232
     9.57    3.232   3.232   3.232   3.232   3.232   3.232   3.232   3.232   3.232   3.232   3.232   3.232   3.232   3.232   3.232   3.232   3.232   3.232   3.232   3.232   3.232   3.232   3.232   3.232   3.232   3.232   3.232   3.232   3.232   3.232   3.232   3.232   3.232   3.232   3.232   3.232
     1.00    3.232   3.232   3.232   3.232   3.232   3.232   3.232   3.232   3.232   3.232   3.232   3.232   3.232   3.232   3.232   3.232   3.232   3.232   3.232   3.232   3.232   3.232   3.232   3.232   3.232   3.232   3.232   3.232   3.232   3.232   3.232   3.232   3.232   3.232   3.232   3.232

   Mean standard deviation across all grid points:
      u component:    3.096 m/s
      v component:    3.232 m/s
      w component:    3.232 m/s


U-component (X) statistics from the interpolated hub point:

   Mean =  19.9462 m/s
   TI   =  14.0557 %


Normalizing Parameters for Binary Data (approximate statistics):

   UBar  =  19.9474 m/s
   TI(u) =  16.0811 %
   TI(v) =  16.2024 %
   TI(w) =  16.2024 %

   Height Offset =   0.0000 m
   Grid Base     =   1.0000 m

Creating a PERIODIC output file.


Processing complete.  115.03 CPU seconds used.
