
This summary file was generated by TurbSim (v2.00.07a-bjj, 14-Jun-2016) on 03-Nov-2023 at 03:24:14.


Runtime Options:

      4901  Random seed #1
    RANLUX  Type of random number generator
         F  Output binary HH turbulence parameters?
         F  Output formatted turbulence parameters?
         F  Output AeroDyn HH files?
         F  Output AeroDyn FF files?
         T  Output BLADED FF files?
         F  Output tower data?
         F  Output formatted FF files?
         F  Output coherent turbulence time step file?
         T  Clockwise rotation when looking downwind?
 0 -  NONE  IEC turbulence models scaled to exact specified standard deviation


Turbine/Model Specifications:

        36  Vertical grid-point matrix dimension
        36  Horizontal grid-point matrix dimension
     0.100  Time step [seconds]
   660.000  Analysis time [seconds]
   660.000  Usable output time [seconds]
   151.000  Hub height [m]
   300.000  Grid height [m]
   300.000  Grid width [m]
     0.000  Vertical flow angle [degrees]
     0.000  Horizontal flow angle [degrees]


Meteorological Boundary Conditions:

    IECVKM  IEC von Karman spectral model
         1  IEC standard: IEC 61400-1 Ed. 3: 2005
         A  IEC turbulence characteristic
       NTM  IEC Normal Turbulence Model
       N/A  IEC Extreme Turbulence Model (ETM) "c" parameter [m/s]
       PL   Wind profile type
   153.000  Reference height [m]
    21.000  Reference wind speed [m/s]
       N/A  Jet height [m]
     0.200  Power law exponent
     0.030  Surface roughness length [m]


Non-IEC Meteorological Boundary Conditions:

       N/A  Site latitude [degrees]
       N/A  Gradient Richardson number
       N/A  Friction or shear velocity [m/s]
       N/A  Mixing layer depth [m]
       N/A  Mean hub u'w' Reynolds stress
       N/A  Mean hub u'v' Reynolds stress
       N/A  Mean hub v'w' Reynolds stress


Spatial Coherence Models:

       IEC  u-component coherence model
      NONE  v-component coherence model
      NONE  w-component coherence model
(   12.000, 0.353E-03)  u-component coherence parameters
                   N/A  v-component coherence parameters
                   N/A  w-component coherence parameters
       N/A  Coherence exponent


You have requested that the following file(s) be generated:

   G:\2023\OpenWECDV1.0.0_x64\BaseLIne\wind\WindL_V_21_seed_4901.wnd (AeroDyn/BLADED full-field wnd file)


Turbulence Simulation Scaling Parameter Summary:

   Turbulence model used                            =  IEC von Karman
   Turbulence characteristic                        =  A
   IEC turbulence type                              =  Normal Turbulence Model
   IEC standard                                     =  IEC 61400-1 Ed. 3: 2005
   Mean wind speed at hub height                    =   20.945 m/s
   Expected value of turbulence intensity at 15 m/s =   16.000%
   Characteristic value of standard deviation       =    3.409 m/s
   Turbulence scale                                 =   42.000 m
   Isotropic integral scale                         =  147.000 m
   Characteristic value of hub turbulence intensity =   16.278%
   Gradient Richardson number                       =    0.000

   Wind profile type                                =  Power law
   Power law exponent                               =    0.200
   Mean shear across rotor disk                     =    0.055 (m/s)/m
   Assumed rotor diameter                           =  300.000 m
   Surface roughness length                         =    0.030 m

   Nyquist frequency of turbulent wind field        =    5.000 Hz

   Number of time steps in the FFT                  =     6600
   Number of time steps output                      =     6600
   Number of points simulated                       =     1297


Mean Flow Angles:

   Vertical   =   0.0 degrees
   Horizontal =   0.0 degrees

Mean Wind Speed Profile:

   Height    Wind Speed   Horizontal Angle  Vertical Angle  U-comp (X)   V-comp (Y)   W-comp (Z)
     (m)        (m/s)         (degrees)       (degrees)       (m/s)        (m/s)        (m/s)   
   ------    ----------   ----------------  --------------  ----------   ----------   ----------
    301.0       24.04            0.00            0.00         24.04         0.00         0.00
    292.4       23.90            0.00            0.00         23.90         0.00         0.00
    283.9       23.76            0.00            0.00         23.76         0.00         0.00
    275.3       23.62            0.00            0.00         23.62         0.00         0.00
    266.7       23.47            0.00            0.00         23.47         0.00         0.00
    258.1       23.32            0.00            0.00         23.32         0.00         0.00
    249.6       23.16            0.00            0.00         23.16         0.00         0.00
    241.0       23.00            0.00            0.00         23.00         0.00         0.00
    232.4       22.83            0.00            0.00         22.83         0.00         0.00
    223.9       22.66            0.00            0.00         22.66         0.00         0.00
    215.3       22.48            0.00            0.00         22.48         0.00         0.00
    206.7       22.30            0.00            0.00         22.30         0.00         0.00
    198.1       22.11            0.00            0.00         22.11         0.00         0.00
    189.6       21.92            0.00            0.00         21.92         0.00         0.00
    181.0       21.72            0.00            0.00         21.72         0.00         0.00
    172.4       21.51            0.00            0.00         21.51         0.00         0.00
    163.9       21.29            0.00            0.00         21.29         0.00         0.00
    155.3       21.06            0.00            0.00         21.06         0.00         0.00
    151.0       20.94            0.00            0.00         20.94         0.00         0.00
    146.7       20.82            0.00            0.00         20.82         0.00         0.00
    138.1       20.58            0.00            0.00         20.58         0.00         0.00
    129.6       20.31            0.00            0.00         20.31         0.00         0.00
    121.0       20.04            0.00            0.00         20.04         0.00         0.00
    112.4       19.74            0.00            0.00         19.74         0.00         0.00
    103.9       19.43            0.00            0.00         19.43         0.00         0.00
     95.3       19.10            0.00            0.00         19.10         0.00         0.00
     86.7       18.75            0.00            0.00         18.75         0.00         0.00
     78.1       18.36            0.00            0.00         18.36         0.00         0.00
     69.6       17.94            0.00            0.00         17.94         0.00         0.00
     61.0       17.47            0.00            0.00         17.47         0.00         0.00
     52.4       16.95            0.00            0.00         16.95         0.00         0.00
     43.9       16.36            0.00            0.00         16.36         0.00         0.00
     35.3       15.66            0.00            0.00         15.66         0.00         0.00
     26.7       14.81            0.00            0.00         14.81         0.00         0.00
     18.1       13.71            0.00            0.00         13.71         0.00         0.00
      9.6       12.06            0.00            0.00         12.06         0.00         0.00
      1.0        7.68            0.00            0.00          7.68         0.00         0.00


Harvested Random Seeds after Generation of the Random Numbers:

    119307688 K 1
            0 K 2


Hub-Height Simulated Turbulence Statistical Summary:

   Type of Wind        Min (m/s)   Mean (m/s)    Max (m/s)  Sigma (m/s)       TI (%)
   ----------------    ---------   ----------    ---------  -----------       ------
   Longitudinal (u)        12.23        20.94        29.37        2.864       13.675
   Lateral (v)             -9.98        -0.00        15.35        3.349       15.991
   Vertical (w)           -10.21         0.00        10.99        3.349       15.991
   U component             12.23        20.94        29.37        2.864       13.675
   V component             -9.98        -0.00        15.35        3.349       15.991
   W component            -10.21         0.00        10.99        3.349       15.991
   Horizontal (U&V)        12.34        21.22        29.47        2.819       13.287
   Total                   12.42        21.48        29.69        2.793       13.000

                       Min Reynolds     Mean Reynolds    Max Reynolds    Correlation
   Product             Stress (m/s)^2   Stress (m/s)^2   Stress (m/s)^2  Coefficient
   ----------------    --------------   --------------   --------------  -----------
   u'w'                    -46.698            -1.176            37.909        -0.123
   u'v'                    -84.272            -0.817            41.095        -0.085
   v'w'                    -44.437             1.049            56.345         0.094


   Friction Velocity (Ustar)  =      1.085 m/s
   Maximum Instantaneous TKE  =    135.372 (m/s)^2
   Maximum Instantaneous CTKE =     45.913 (m/s)^2


Grid Point Variance Summary:

   Y-coord -150.00 -141.43 -132.86 -124.29 -115.71 -107.14  -98.57  -90.00  -81.43  -72.86  -64.29  -55.71  -47.14  -38.57  -30.00  -21.43  -12.86   -4.29    4.29   12.86   21.43   30.00   38.57   47.14   55.71   64.29   72.86   81.43   90.00   98.57  107.14  115.71  124.29  132.86  141.43  150.00

   Height   Standard deviation at grid points for the u component:
   301.00    3.575   3.350   3.389   3.256   3.301   3.116   3.268   3.345   3.315   3.472   3.510   3.445   3.482   3.229   3.437   3.364   3.403   3.258   3.292   3.363   3.134   3.193   3.322   3.275   3.223   3.162   3.149   3.063   3.007   3.064   3.187   3.037   3.281   3.239   3.246   3.226
   292.43    3.396   3.366   3.541   3.407   3.290   3.355   3.440   3.402   3.349   3.470   3.337   3.563   3.394   3.341   3.382   3.523   3.498   3.344   3.028   3.151   3.088   3.296   3.293   3.111   3.087   3.101   3.083   2.952   3.005   3.195   3.156   3.222   3.152   3.386   3.299   3.323
   283.86    3.306   3.458   3.431   3.506   3.295   3.466   3.371   3.433   3.430   3.374   3.335   3.321   3.315   3.486   3.391   3.400   3.622   3.504   3.149   3.152   3.129   3.152   3.186   3.240   3.004   3.027   2.992   2.978   3.150   3.163   3.111   3.235   3.356   3.440   3.378   3.411
   275.29    3.399   3.379   3.338   3.340   3.309   3.330   3.438   3.334   3.418   3.416   3.323   3.378   3.440   3.482   3.365   3.326   3.539   3.658   3.346   3.373   3.238   3.289   3.348   3.091   3.015   3.171   3.205   3.001   3.252   3.395   3.287   3.295   3.221   3.488   3.514   3.457
   266.71    3.540   3.398   3.501   3.410   3.286   3.379   3.360   3.357   3.350   3.500   3.410   3.271   3.450   3.330   3.387   3.459   3.519   3.304   3.319   3.320   3.186   3.287   3.332   3.243   3.209   3.229   3.292   3.059   3.310   3.445   3.214   3.408   3.414   3.431   3.513   3.312
   258.14    3.661   3.451   3.670   3.601   3.544   3.523   3.389   3.389   3.418   3.567   3.532   3.431   3.471   3.674   3.743   3.632   3.618   3.497   3.346   3.278   3.186   3.148   3.343   3.217   3.187   3.267   3.178   3.199   3.232   3.240   3.372   3.344   3.478   3.485   3.466   3.545
   249.57    3.660   3.601   3.506   3.604   3.759   3.386   3.278   3.460   3.468   3.631   3.479   3.435   3.667   3.714   3.801   3.689   3.613   3.515   3.612   3.452   3.090   3.199   3.192   3.157   3.030   3.064   3.017   3.118   3.087   3.302   3.351   3.434   3.396   3.544   3.570   3.471
   241.00    3.495   3.540   3.486   3.560   3.593   3.542   3.522   3.550   3.531   3.695   3.492   3.405   3.632   3.679   3.775   3.639   3.575   3.231   3.441   3.307   3.217   3.154   3.134   2.873   2.884   3.067   3.062   3.019   3.123   3.065   3.409   3.422   3.313   3.369   3.309   3.499
   232.43    3.580   3.701   3.638   3.642   3.516   3.464   3.490   3.680   3.738   3.687   3.804   3.426   3.394   3.457   3.605   3.605   3.540   3.356   3.187   3.240   3.000   3.006   3.139   3.050   2.842   2.924   3.092   2.989   3.046   3.147   3.298   3.260   3.390   3.291   3.275   3.346
   223.86    3.441   3.529   3.574   3.690   3.594   3.584   3.615   3.865   3.805   3.953   3.783   3.396   3.437   3.500   3.608   3.591   3.509   3.186   3.209   3.233   3.002   2.956   3.038   3.043   2.931   2.963   2.964   2.870   2.756   3.040   3.364   3.273   3.422   3.350   3.330   3.401
   215.29    3.459   3.464   3.594   3.610   3.601   3.521   3.648   3.655   3.820   3.948   3.716   3.696   3.472   3.383   3.423   3.612   3.513   3.404   3.285   3.175   3.174   3.119   3.121   3.042   2.848   2.945   2.894   2.855   2.836   3.061   3.305   3.263   3.322   3.308   3.227   3.352
   206.71    3.429   3.544   3.550   3.538   3.442   3.376   3.534   3.794   3.759   3.727   3.624   3.655   3.572   3.567   3.357   3.430   3.381   3.461   3.229   3.320   3.267   3.018   2.854   3.111   2.851   2.925   3.060   3.070   2.990   3.143   3.159   3.312   3.197   3.170   3.174   3.353
   198.14    3.256   3.308   3.375   3.289   3.151   3.355   3.565   3.712   3.604   3.704   3.653   3.446   3.477   3.451   3.435   3.483   3.353   3.216   3.265   3.360   3.199   3.177   3.056   2.946   2.815   2.925   3.194   3.191   3.257   3.234   3.182   3.179   3.085   3.033   3.104   3.199
   189.57    3.226   3.215   3.274   3.240   3.144   3.179   3.414   3.627   3.559   3.581   3.495   3.464   3.479   3.418   3.440   3.395   3.232   3.102   3.194   3.209   3.289   3.058   3.025   2.816   2.883   2.962   3.030   3.181   3.121   3.066   3.133   3.125   3.096   3.180   3.266   3.149
   181.00    3.241   3.211   3.234   3.063   3.019   3.157   3.306   3.418   3.485   3.552   3.503   3.323   3.471   3.336   3.376   3.410   3.239   3.170   3.145   3.323   3.275   3.242   3.177   3.089   3.121   3.011   3.199   3.200   2.950   3.152   3.198   3.212   3.260   3.259   3.229   3.356
   172.43    3.246   3.167   3.233   3.268   3.049   3.050   3.456   3.434   3.477   3.637   3.540   3.368   3.461   3.383   3.249   3.259   3.122   3.286   3.241   3.219   3.391   3.293   3.162   3.210   3.220   3.262   3.337   3.318   3.224   3.182   3.219   3.142   3.204   3.405   3.239   3.278
   163.86    3.153   3.342   3.338   3.346   3.147   3.064   3.159   3.267   3.467   3.486   3.515   3.549   3.557   3.347   3.276   3.036   3.105   3.077   3.092   3.040   3.203   3.259   3.301   3.286   3.296   3.293   3.260   3.217   3.205   3.226   3.211   3.247   3.210   3.186   3.356   3.306
   155.29    3.009   3.124   3.333   3.309   3.137   3.134   3.148   3.454   3.392   3.544   3.827   3.585   3.636   3.492   3.435   3.259   3.046   2.946   3.018   3.084   3.164   3.302   3.439   3.535   3.548   3.319   3.154   3.193   3.110   3.167   3.244   3.291   3.241   3.236   3.271   3.187
   146.71    3.116   3.060   3.188   3.217   3.214   3.194   3.267   3.569   3.435   3.602   3.633   3.516   3.641   3.447   3.381   3.245   3.233   3.036   3.014   3.166   3.177   3.194   3.373   3.530   3.468   3.378   3.391   3.109   3.061   2.973   3.261   3.224   3.299   3.193   3.198   3.113
   138.14    3.118   2.966   3.203   3.160   3.210   3.389   3.426   3.542   3.581   3.517   3.409   3.256   3.444   3.429   3.382   3.518   3.294   3.296   3.225   3.150   3.200   3.180   3.371   3.399   3.390   3.295   3.267   3.279   3.148   3.227   3.215   3.504   3.118   3.132   3.223   3.218
   129.57    3.206   3.157   3.126   3.046   3.229   3.356   3.446   3.521   3.519   3.431   3.364   3.347   3.540   3.418   3.564   3.526   3.553   3.494   3.319   3.196   3.248   3.291   3.322   3.377   3.554   3.451   3.346   3.214   3.171   3.304   3.333   3.529   3.401   3.257   3.213   3.380
   121.00    3.120   2.994   2.995   2.998   3.181   3.431   3.607   3.679   3.492   3.341   3.338   3.610   3.599   3.443   3.428   3.498   3.593   3.451   3.500   3.245   3.187   3.160   3.289   3.439   3.373   3.454   3.372   3.316   3.423   3.367   3.383   3.502   3.433   3.465   3.453   3.364
   112.43    3.017   3.013   2.972   2.926   3.042   3.348   3.640   3.537   3.277   3.119   3.305   3.500   3.439   3.468   3.397   3.392   3.390   3.426   3.384   3.300   3.183   3.233   3.252   3.237   3.444   3.224   3.340   3.258   3.363   3.314   3.308   3.336   3.390   3.315   3.417   3.494
   103.86    3.078   3.062   3.008   3.152   3.253   3.471   3.477   3.556   3.189   3.362   3.458   3.523   3.616   3.508   3.417   3.294   3.313   3.379   3.309   3.195   3.290   3.328   3.302   3.319   3.221   3.301   3.337   3.401   3.249   3.333   3.257   3.344   3.344   3.393   3.408   3.538
    95.29    3.264   2.979   3.152   3.326   3.376   3.436   3.376   3.612   3.367   3.292   3.393   3.449   3.459   3.355   3.450   3.304   3.233   3.300   3.298   3.125   3.337   3.439   3.237   3.232   3.245   3.273   3.300   3.346   3.332   3.394   3.307   3.329   3.318   3.520   3.482   3.321
    86.71    3.293   3.277   3.335   3.326   3.372   3.434   3.358   3.425   3.349   3.299   3.249   3.148   3.234   3.233   3.301   3.261   3.190   3.251   3.228   3.125   3.283   3.302   3.383   3.231   3.298   3.324   3.291   3.335   3.614   3.675   3.441   3.373   3.422   3.239   3.266   3.412
    78.14    3.420   3.477   3.263   3.185   3.165   3.193   3.447   3.356   3.485   3.231   3.275   3.210   3.123   3.260   3.349   3.241   3.148   3.374   3.220   3.454   3.399   3.273   3.244   3.371   3.121   3.324   3.229   3.308   3.563   3.653   3.536   3.529   3.500   3.461   3.331   3.244
    69.57    3.443   3.429   3.244   3.227   3.171   3.315   3.331   3.271   3.380   3.112   3.190   3.219   3.304   3.332   3.348   3.229   3.337   3.288   3.338   3.494   3.414   3.288   3.340   3.429   3.300   3.297   3.217   3.446   3.437   3.473   3.555   3.599   3.499   3.542   3.417   3.283
    61.00    3.456   3.413   3.290   3.210   3.137   3.050   3.319   3.386   3.472   3.216   3.238   3.300   3.287   3.418   3.443   3.373   3.299   3.350   3.410   3.422   3.475   3.415   3.329   3.449   3.460   3.164   3.360   3.536   3.471   3.579   3.630   3.520   3.581   3.557   3.355   3.334
    52.43    3.507   3.451   3.286   3.139   2.964   3.128   3.254   3.347   3.420   3.654   3.465   3.341   3.416   3.349   3.425   3.311   3.260   3.358   3.423   3.443   3.459   3.479   3.458   3.558   3.598   3.460   3.385   3.508   3.515   3.585   3.563   3.471   3.603   3.702   3.572   3.316
    43.86    3.539   3.580   3.467   3.221   3.079   3.094   3.148   3.079   3.256   3.405   3.345   3.383   3.538   3.492   3.348   3.367   3.359   3.382   3.374   3.387   3.429   3.384   3.394   3.502   3.482   3.392   3.582   3.430   3.432   3.511   3.465   3.501   3.520   3.667   3.676   3.349
    35.29    3.509   3.434   3.462   3.340   3.179   3.208   3.150   3.107   3.245   3.355   3.440   3.618   3.624   3.669   3.493   3.554   3.516   3.584   3.535   3.557   3.466   3.534   3.417   3.404   3.348   3.315   3.538   3.261   3.235   3.279   3.395   3.471   3.435   3.497   3.403   3.393
    26.71    3.393   3.242   3.179   3.148   3.338   3.291   3.309   3.222   3.391   3.530   3.525   3.632   3.626   3.703   3.596   3.525   3.438   3.512   3.694   3.431   3.499   3.533   3.523   3.358   3.387   3.325   3.389   3.250   3.164   3.018   3.247   3.468   3.523   3.170   3.298   3.160
    18.14    3.221   3.107   3.081   3.062   3.313   3.278   3.439   3.405   3.452   3.538   3.627   3.545   3.655   3.534   3.572   3.653   3.540   3.507   3.671   3.407   3.493   3.532   3.577   3.331   3.418   3.421   3.355   3.180   3.178   3.118   3.218   3.341   3.372   3.146   3.220   3.026
     9.57    3.244   3.146   3.205   3.262   3.120   3.284   3.347   3.500   3.569   3.483   3.476   3.409   3.545   3.509   3.615   3.730   3.581   3.484   3.385   3.314   3.535   3.421   3.343   3.236   3.326   3.332   3.414   3.414   3.201   2.980   3.206   3.280   3.163   3.130   3.012   2.958
     1.00    3.342   3.338   3.273   3.391   3.322   3.276   3.350   3.414   3.684   3.559   3.395   3.608   3.665   3.635   3.618   3.590   3.335   3.439   3.334   3.469   3.451   3.367   3.378   3.175   3.344   3.212   3.336   3.354   3.263   3.330   3.187   3.263   3.193   3.120   2.867   3.003

   Height   Standard deviation at grid points for the v component:
   301.00    3.349   3.349   3.349   3.349   3.349   3.349   3.349   3.349   3.349   3.349   3.349   3.349   3.349   3.349   3.349   3.349   3.349   3.349   3.349   3.349   3.349   3.349   3.349   3.349   3.349   3.349   3.349   3.349   3.349   3.349   3.349   3.349   3.349   3.349   3.349   3.349
   292.43    3.349   3.349   3.349   3.349   3.349   3.349   3.349   3.349   3.349   3.349   3.349   3.349   3.349   3.349   3.349   3.349   3.349   3.349   3.349   3.349   3.349   3.349   3.349   3.349   3.349   3.349   3.349   3.349   3.349   3.349   3.349   3.349   3.349   3.349   3.349   3.349
   283.86    3.349   3.349   3.349   3.349   3.349   3.349   3.349   3.349   3.349   3.349   3.349   3.349   3.349   3.349   3.349   3.349   3.349   3.349   3.349   3.349   3.349   3.349   3.349   3.349   3.349   3.349   3.349   3.349   3.349   3.349   3.349   3.349   3.349   3.349   3.349   3.349
   275.29    3.349   3.349   3.349   3.349   3.349   3.349   3.349   3.349   3.349   3.349   3.349   3.349   3.349   3.349   3.349   3.349   3.349   3.349   3.349   3.349   3.349   3.349   3.349   3.349   3.349   3.349   3.349   3.349   3.349   3.349   3.349   3.349   3.349   3.349   3.349   3.349
   266.71    3.349   3.349   3.349   3.349   3.349   3.349   3.349   3.349   3.349   3.349   3.349   3.349   3.349   3.349   3.349   3.349   3.349   3.349   3.349   3.349   3.349   3.349   3.349   3.349   3.349   3.349   3.349   3.349   3.349   3.349   3.349   3.349   3.349   3.349   3.349   3.349
   258.14    3.349   3.349   3.349   3.349   3.349   3.349   3.349   3.349   3.349   3.349   3.349   3.349   3.349   3.349   3.349   3.349   3.349   3.349   3.349   3.349   3.349   3.349   3.349   3.349   3.349   3.349   3.349   3.349   3.349   3.349   3.349   3.349   3.349   3.349   3.349   3.349
   249.57    3.349   3.349   3.349   3.349   3.349   3.349   3.349   3.349   3.349   3.349   3.349   3.349   3.349   3.349   3.349   3.349   3.349   3.349   3.349   3.349   3.349   3.349   3.349   3.349   3.349   3.349   3.349   3.349   3.349   3.349   3.349   3.349   3.349   3.349   3.349   3.349
   241.00    3.349   3.349   3.349   3.349   3.349   3.349   3.349   3.349   3.349   3.349   3.349   3.349   3.349   3.349   3.349   3.349   3.349   3.349   3.349   3.349   3.349   3.349   3.349   3.349   3.349   3.349   3.349   3.349   3.349   3.349   3.349   3.349   3.349   3.349   3.349   3.349
   232.43    3.349   3.349   3.349   3.349   3.349   3.349   3.349   3.349   3.349   3.349   3.349   3.349   3.349   3.349   3.349   3.349   3.349   3.349   3.349   3.349   3.349   3.349   3.349   3.349   3.349   3.349   3.349   3.349   3.349   3.349   3.349   3.349   3.349   3.349   3.349   3.349
   223.86    3.349   3.349   3.349   3.349   3.349   3.349   3.349   3.349   3.349   3.349   3.349   3.349   3.349   3.349   3.349   3.349   3.349   3.349   3.349   3.349   3.349   3.349   3.349   3.349   3.349   3.349   3.349   3.349   3.349   3.349   3.349   3.349   3.349   3.349   3.349   3.349
   215.29    3.349   3.349   3.349   3.349   3.349   3.349   3.349   3.349   3.349   3.349   3.349   3.349   3.349   3.349   3.349   3.349   3.349   3.349   3.349   3.349   3.349   3.349   3.349   3.349   3.349   3.349   3.349   3.349   3.349   3.349   3.349   3.349   3.349   3.349   3.349   3.349
   206.71    3.349   3.349   3.349   3.349   3.349   3.349   3.349   3.349   3.349   3.349   3.349   3.349   3.349   3.349   3.349   3.349   3.349   3.349   3.349   3.349   3.349   3.349   3.349   3.349   3.349   3.349   3.349   3.349   3.349   3.349   3.349   3.349   3.349   3.349   3.349   3.349
   198.14    3.349   3.349   3.349   3.349   3.349   3.349   3.349   3.349   3.349   3.349   3.349   3.349   3.349   3.349   3.349   3.349   3.349   3.349   3.349   3.349   3.349   3.349   3.349   3.349   3.349   3.349   3.349   3.349   3.349   3.349   3.349   3.349   3.349   3.349   3.349   3.349
   189.57    3.349   3.349   3.349   3.349   3.349   3.349   3.349   3.349   3.349   3.349   3.349   3.349   3.349   3.349   3.349   3.349   3.349   3.349   3.349   3.349   3.349   3.349   3.349   3.349   3.349   3.349   3.349   3.349   3.349   3.349   3.349   3.349   3.349   3.349   3.349   3.349
   181.00    3.349   3.349   3.349   3.349   3.349   3.349   3.349   3.349   3.349   3.349   3.349   3.349   3.349   3.349   3.349   3.349   3.349   3.349   3.349   3.349   3.349   3.349   3.349   3.349   3.349   3.349   3.349   3.349   3.349   3.349   3.349   3.349   3.349   3.349   3.349   3.349
   172.43    3.349   3.349   3.349   3.349   3.349   3.349   3.349   3.349   3.349   3.349   3.349   3.349   3.349   3.349   3.349   3.349   3.349   3.349   3.349   3.349   3.349   3.349   3.349   3.349   3.349   3.349   3.349   3.349   3.349   3.349   3.349   3.349   3.349   3.349   3.349   3.349
   163.86    3.349   3.349   3.349   3.349   3.349   3.349   3.349   3.349   3.349   3.349   3.349   3.349   3.349   3.349   3.349   3.349   3.349   3.349   3.349   3.349   3.349   3.349   3.349   3.349   3.349   3.349   3.349   3.349   3.349   3.349   3.349   3.349   3.349   3.349   3.349   3.349
   155.29    3.349   3.349   3.349   3.349   3.349   3.349   3.349   3.349   3.349   3.349   3.349   3.349   3.349   3.349   3.349   3.349   3.349   3.349   3.349   3.349   3.349   3.349   3.349   3.349   3.349   3.349   3.349   3.349   3.349   3.349   3.349   3.349   3.349   3.349   3.349   3.349
   146.71    3.349   3.349   3.349   3.349   3.349   3.349   3.349   3.349   3.349   3.349   3.349   3.349   3.349   3.349   3.349   3.349   3.349   3.349   3.349   3.349   3.349   3.349   3.349   3.349   3.349   3.349   3.349   3.349   3.349   3.349   3.349   3.349   3.349   3.349   3.349   3.349
   138.14    3.349   3.349   3.349   3.349   3.349   3.349   3.349   3.349   3.349   3.349   3.349   3.349   3.349   3.349   3.349   3.349   3.349   3.349   3.349   3.349   3.349   3.349   3.349   3.349   3.349   3.349   3.349   3.349   3.349   3.349   3.349   3.349   3.349   3.349   3.349   3.349
   129.57    3.349   3.349   3.349   3.349   3.349   3.349   3.349   3.349   3.349   3.349   3.349   3.349   3.349   3.349   3.349   3.349   3.349   3.349   3.349   3.349   3.349   3.349   3.349   3.349   3.349   3.349   3.349   3.349   3.349   3.349   3.349   3.349   3.349   3.349   3.349   3.349
   121.00    3.349   3.349   3.349   3.349   3.349   3.349   3.349   3.349   3.349   3.349   3.349   3.349   3.349   3.349   3.349   3.349   3.349   3.349   3.349   3.349   3.349   3.349   3.349   3.349   3.349   3.349   3.349   3.349   3.349   3.349   3.349   3.349   3.349   3.349   3.349   3.349
   112.43    3.349   3.349   3.349   3.349   3.349   3.349   3.349   3.349   3.349   3.349   3.349   3.349   3.349   3.349   3.349   3.349   3.349   3.349   3.349   3.349   3.349   3.349   3.349   3.349   3.349   3.349   3.349   3.349   3.349   3.349   3.349   3.349   3.349   3.349   3.349   3.349
   103.86    3.349   3.349   3.349   3.349   3.349   3.349   3.349   3.349   3.349   3.349   3.349   3.349   3.349   3.349   3.349   3.349   3.349   3.349   3.349   3.349   3.349   3.349   3.349   3.349   3.349   3.349   3.349   3.349   3.349   3.349   3.349   3.349   3.349   3.349   3.349   3.349
    95.29    3.349   3.349   3.349   3.349   3.349   3.349   3.349   3.349   3.349   3.349   3.349   3.349   3.349   3.349   3.349   3.349   3.349   3.349   3.349   3.349   3.349   3.349   3.349   3.349   3.349   3.349   3.349   3.349   3.349   3.349   3.349   3.349   3.349   3.349   3.349   3.349
    86.71    3.349   3.349   3.349   3.349   3.349   3.349   3.349   3.349   3.349   3.349   3.349   3.349   3.349   3.349   3.349   3.349   3.349   3.349   3.349   3.349   3.349   3.349   3.349   3.349   3.349   3.349   3.349   3.349   3.349   3.349   3.349   3.349   3.349   3.349   3.349   3.349
    78.14    3.349   3.349   3.349   3.349   3.349   3.349   3.349   3.349   3.349   3.349   3.349   3.349   3.349   3.349   3.349   3.349   3.349   3.349   3.349   3.349   3.349   3.349   3.349   3.349   3.349   3.349   3.349   3.349   3.349   3.349   3.349   3.349   3.349   3.349   3.349   3.349
    69.57    3.349   3.349   3.349   3.349   3.349   3.349   3.349   3.349   3.349   3.349   3.349   3.349   3.349   3.349   3.349   3.349   3.349   3.349   3.349   3.349   3.349   3.349   3.349   3.349   3.349   3.349   3.349   3.349   3.349   3.349   3.349   3.349   3.349   3.349   3.349   3.349
    61.00    3.349   3.349   3.349   3.349   3.349   3.349   3.349   3.349   3.349   3.349   3.349   3.349   3.349   3.349   3.349   3.349   3.349   3.349   3.349   3.349   3.349   3.349   3.349   3.349   3.349   3.349   3.349   3.349   3.349   3.349   3.349   3.349   3.349   3.349   3.349   3.349
    52.43    3.349   3.349   3.349   3.349   3.349   3.349   3.349   3.349   3.349   3.349   3.349   3.349   3.349   3.349   3.349   3.349   3.349   3.349   3.349   3.349   3.349   3.349   3.349   3.349   3.349   3.349   3.349   3.349   3.349   3.349   3.349   3.349   3.349   3.349   3.349   3.349
    43.86    3.349   3.349   3.349   3.349   3.349   3.349   3.349   3.349   3.349   3.349   3.349   3.349   3.349   3.349   3.349   3.349   3.349   3.349   3.349   3.349   3.349   3.349   3.349   3.349   3.349   3.349   3.349   3.349   3.349   3.349   3.349   3.349   3.349   3.349   3.349   3.349
    35.29    3.349   3.349   3.349   3.349   3.349   3.349   3.349   3.349   3.349   3.349   3.349   3.349   3.349   3.349   3.349   3.349   3.349   3.349   3.349   3.349   3.349   3.349   3.349   3.349   3.349   3.349   3.349   3.349   3.349   3.349   3.349   3.349   3.349   3.349   3.349   3.349
    26.71    3.349   3.349   3.349   3.349   3.349   3.349   3.349   3.349   3.349   3.349   3.349   3.349   3.349   3.349   3.349   3.349   3.349   3.349   3.349   3.349   3.349   3.349   3.349   3.349   3.349   3.349   3.349   3.349   3.349   3.349   3.349   3.349   3.349   3.349   3.349   3.349
    18.14    3.349   3.349   3.349   3.349   3.349   3.349   3.349   3.349   3.349   3.349   3.349   3.349   3.349   3.349   3.349   3.349   3.349   3.349   3.349   3.349   3.349   3.349   3.349   3.349   3.349   3.349   3.349   3.349   3.349   3.349   3.349   3.349   3.349   3.349   3.349   3.349
     9.57    3.349   3.349   3.349   3.349   3.349   3.349   3.349   3.349   3.349   3.349   3.349   3.349   3.349   3.349   3.349   3.349   3.349   3.349   3.349   3.349   3.349   3.349   3.349   3.349   3.349   3.349   3.349   3.349   3.349   3.349   3.349   3.349   3.349   3.349   3.349   3.349
     1.00    3.349   3.349   3.349   3.349   3.349   3.349   3.349   3.349   3.349   3.349   3.349   3.349   3.349   3.349   3.349   3.349   3.349   3.349   3.349   3.349   3.349   3.349   3.349   3.349   3.349   3.349   3.349   3.349   3.349   3.349   3.349   3.349   3.349   3.349   3.349   3.349

   Height   Standard deviation at grid points for the w component:
   301.00    3.349   3.349   3.349   3.349   3.349   3.349   3.349   3.349   3.349   3.349   3.349   3.349   3.349   3.349   3.349   3.349   3.349   3.349   3.349   3.349   3.349   3.349   3.349   3.349   3.349   3.349   3.349   3.349   3.349   3.349   3.349   3.349   3.349   3.349   3.349   3.349
   292.43    3.349   3.349   3.349   3.349   3.349   3.349   3.349   3.349   3.349   3.349   3.349   3.349   3.349   3.349   3.349   3.349   3.349   3.349   3.349   3.349   3.349   3.349   3.349   3.349   3.349   3.349   3.349   3.349   3.349   3.349   3.349   3.349   3.349   3.349   3.349   3.349
   283.86    3.349   3.349   3.349   3.349   3.349   3.349   3.349   3.349   3.349   3.349   3.349   3.349   3.349   3.349   3.349   3.349   3.349   3.349   3.349   3.349   3.349   3.349   3.349   3.349   3.349   3.349   3.349   3.349   3.349   3.349   3.349   3.349   3.349   3.349   3.349   3.349
   275.29    3.349   3.349   3.349   3.349   3.349   3.349   3.349   3.349   3.349   3.349   3.349   3.349   3.349   3.349   3.349   3.349   3.349   3.349   3.349   3.349   3.349   3.349   3.349   3.349   3.349   3.349   3.349   3.349   3.349   3.349   3.349   3.349   3.349   3.349   3.349   3.349
   266.71    3.349   3.349   3.349   3.349   3.349   3.349   3.349   3.349   3.349   3.349   3.349   3.349   3.349   3.349   3.349   3.349   3.349   3.349   3.349   3.349   3.349   3.349   3.349   3.349   3.349   3.349   3.349   3.349   3.349   3.349   3.349   3.349   3.349   3.349   3.349   3.349
   258.14    3.349   3.349   3.349   3.349   3.349   3.349   3.349   3.349   3.349   3.349   3.349   3.349   3.349   3.349   3.349   3.349   3.349   3.349   3.349   3.349   3.349   3.349   3.349   3.349   3.349   3.349   3.349   3.349   3.349   3.349   3.349   3.349   3.349   3.349   3.349   3.349
   249.57    3.349   3.349   3.349   3.349   3.349   3.349   3.349   3.349   3.349   3.349   3.349   3.349   3.349   3.349   3.349   3.349   3.349   3.349   3.349   3.349   3.349   3.349   3.349   3.349   3.349   3.349   3.349   3.349   3.349   3.349   3.349   3.349   3.349   3.349   3.349   3.349
   241.00    3.349   3.349   3.349   3.349   3.349   3.349   3.349   3.349   3.349   3.349   3.349   3.349   3.349   3.349   3.349   3.349   3.349   3.349   3.349   3.349   3.349   3.349   3.349   3.349   3.349   3.349   3.349   3.349   3.349   3.349   3.349   3.349   3.349   3.349   3.349   3.349
   232.43    3.349   3.349   3.349   3.349   3.349   3.349   3.349   3.349   3.349   3.349   3.349   3.349   3.349   3.349   3.349   3.349   3.349   3.349   3.349   3.349   3.349   3.349   3.349   3.349   3.349   3.349   3.349   3.349   3.349   3.349   3.349   3.349   3.349   3.349   3.349   3.349
   223.86    3.349   3.349   3.349   3.349   3.349   3.349   3.349   3.349   3.349   3.349   3.349   3.349   3.349   3.349   3.349   3.349   3.349   3.349   3.349   3.349   3.349   3.349   3.349   3.349   3.349   3.349   3.349   3.349   3.349   3.349   3.349   3.349   3.349   3.349   3.349   3.349
   215.29    3.349   3.349   3.349   3.349   3.349   3.349   3.349   3.349   3.349   3.349   3.349   3.349   3.349   3.349   3.349   3.349   3.349   3.349   3.349   3.349   3.349   3.349   3.349   3.349   3.349   3.349   3.349   3.349   3.349   3.349   3.349   3.349   3.349   3.349   3.349   3.349
   206.71    3.349   3.349   3.349   3.349   3.349   3.349   3.349   3.349   3.349   3.349   3.349   3.349   3.349   3.349   3.349   3.349   3.349   3.349   3.349   3.349   3.349   3.349   3.349   3.349   3.349   3.349   3.349   3.349   3.349   3.349   3.349   3.349   3.349   3.349   3.349   3.349
   198.14    3.349   3.349   3.349   3.349   3.349   3.349   3.349   3.349   3.349   3.349   3.349   3.349   3.349   3.349   3.349   3.349   3.349   3.349   3.349   3.349   3.349   3.349   3.349   3.349   3.349   3.349   3.349   3.349   3.349   3.349   3.349   3.349   3.349   3.349   3.349   3.349
   189.57    3.349   3.349   3.349   3.349   3.349   3.349   3.349   3.349   3.349   3.349   3.349   3.349   3.349   3.349   3.349   3.349   3.349   3.349   3.349   3.349   3.349   3.349   3.349   3.349   3.349   3.349   3.349   3.349   3.349   3.349   3.349   3.349   3.349   3.349   3.349   3.349
   181.00    3.349   3.349   3.349   3.349   3.349   3.349   3.349   3.349   3.349   3.349   3.349   3.349   3.349   3.349   3.349   3.349   3.349   3.349   3.349   3.349   3.349   3.349   3.349   3.349   3.349   3.349   3.349   3.349   3.349   3.349   3.349   3.349   3.349   3.349   3.349   3.349
   172.43    3.349   3.349   3.349   3.349   3.349   3.349   3.349   3.349   3.349   3.349   3.349   3.349   3.349   3.349   3.349   3.349   3.349   3.349   3.349   3.349   3.349   3.349   3.349   3.349   3.349   3.349   3.349   3.349   3.349   3.349   3.349   3.349   3.349   3.349   3.349   3.349
   163.86    3.349   3.349   3.349   3.349   3.349   3.349   3.349   3.349   3.349   3.349   3.349   3.349   3.349   3.349   3.349   3.349   3.349   3.349   3.349   3.349   3.349   3.349   3.349   3.349   3.349   3.349   3.349   3.349   3.349   3.349   3.349   3.349   3.349   3.349   3.349   3.349
   155.29    3.349   3.349   3.349   3.349   3.349   3.349   3.349   3.349   3.349   3.349   3.349   3.349   3.349   3.349   3.349   3.349   3.349   3.349   3.349   3.349   3.349   3.349   3.349   3.349   3.349   3.349   3.349   3.349   3.349   3.349   3.349   3.349   3.349   3.349   3.349   3.349
   146.71    3.349   3.349   3.349   3.349   3.349   3.349   3.349   3.349   3.349   3.349   3.349   3.349   3.349   3.349   3.349   3.349   3.349   3.349   3.349   3.349   3.349   3.349   3.349   3.349   3.349   3.349   3.349   3.349   3.349   3.349   3.349   3.349   3.349   3.349   3.349   3.349
   138.14    3.349   3.349   3.349   3.349   3.349   3.349   3.349   3.349   3.349   3.349   3.349   3.349   3.349   3.349   3.349   3.349   3.349   3.349   3.349   3.349   3.349   3.349   3.349   3.349   3.349   3.349   3.349   3.349   3.349   3.349   3.349   3.349   3.349   3.349   3.349   3.349
   129.57    3.349   3.349   3.349   3.349   3.349   3.349   3.349   3.349   3.349   3.349   3.349   3.349   3.349   3.349   3.349   3.349   3.349   3.349   3.349   3.349   3.349   3.349   3.349   3.349   3.349   3.349   3.349   3.349   3.349   3.349   3.349   3.349   3.349   3.349   3.349   3.349
   121.00    3.349   3.349   3.349   3.349   3.349   3.349   3.349   3.349   3.349   3.349   3.349   3.349   3.349   3.349   3.349   3.349   3.349   3.349   3.349   3.349   3.349   3.349   3.349   3.349   3.349   3.349   3.349   3.349   3.349   3.349   3.349   3.349   3.349   3.349   3.349   3.349
   112.43    3.349   3.349   3.349   3.349   3.349   3.349   3.349   3.349   3.349   3.349   3.349   3.349   3.349   3.349   3.349   3.349   3.349   3.349   3.349   3.349   3.349   3.349   3.349   3.349   3.349   3.349   3.349   3.349   3.349   3.349   3.349   3.349   3.349   3.349   3.349   3.349
   103.86    3.349   3.349   3.349   3.349   3.349   3.349   3.349   3.349   3.349   3.349   3.349   3.349   3.349   3.349   3.349   3.349   3.349   3.349   3.349   3.349   3.349   3.349   3.349   3.349   3.349   3.349   3.349   3.349   3.349   3.349   3.349   3.349   3.349   3.349   3.349   3.349
    95.29    3.349   3.349   3.349   3.349   3.349   3.349   3.349   3.349   3.349   3.349   3.349   3.349   3.349   3.349   3.349   3.349   3.349   3.349   3.349   3.349   3.349   3.349   3.349   3.349   3.349   3.349   3.349   3.349   3.349   3.349   3.349   3.349   3.349   3.349   3.349   3.349
    86.71    3.349   3.349   3.349   3.349   3.349   3.349   3.349   3.349   3.349   3.349   3.349   3.349   3.349   3.349   3.349   3.349   3.349   3.349   3.349   3.349   3.349   3.349   3.349   3.349   3.349   3.349   3.349   3.349   3.349   3.349   3.349   3.349   3.349   3.349   3.349   3.349
    78.14    3.349   3.349   3.349   3.349   3.349   3.349   3.349   3.349   3.349   3.349   3.349   3.349   3.349   3.349   3.349   3.349   3.349   3.349   3.349   3.349   3.349   3.349   3.349   3.349   3.349   3.349   3.349   3.349   3.349   3.349   3.349   3.349   3.349   3.349   3.349   3.349
    69.57    3.349   3.349   3.349   3.349   3.349   3.349   3.349   3.349   3.349   3.349   3.349   3.349   3.349   3.349   3.349   3.349   3.349   3.349   3.349   3.349   3.349   3.349   3.349   3.349   3.349   3.349   3.349   3.349   3.349   3.349   3.349   3.349   3.349   3.349   3.349   3.349
    61.00    3.349   3.349   3.349   3.349   3.349   3.349   3.349   3.349   3.349   3.349   3.349   3.349   3.349   3.349   3.349   3.349   3.349   3.349   3.349   3.349   3.349   3.349   3.349   3.349   3.349   3.349   3.349   3.349   3.349   3.349   3.349   3.349   3.349   3.349   3.349   3.349
    52.43    3.349   3.349   3.349   3.349   3.349   3.349   3.349   3.349   3.349   3.349   3.349   3.349   3.349   3.349   3.349   3.349   3.349   3.349   3.349   3.349   3.349   3.349   3.349   3.349   3.349   3.349   3.349   3.349   3.349   3.349   3.349   3.349   3.349   3.349   3.349   3.349
    43.86    3.349   3.349   3.349   3.349   3.349   3.349   3.349   3.349   3.349   3.349   3.349   3.349   3.349   3.349   3.349   3.349   3.349   3.349   3.349   3.349   3.349   3.349   3.349   3.349   3.349   3.349   3.349   3.349   3.349   3.349   3.349   3.349   3.349   3.349   3.349   3.349
    35.29    3.349   3.349   3.349   3.349   3.349   3.349   3.349   3.349   3.349   3.349   3.349   3.349   3.349   3.349   3.349   3.349   3.349   3.349   3.349   3.349   3.349   3.349   3.349   3.349   3.349   3.349   3.349   3.349   3.349   3.349   3.349   3.349   3.349   3.349   3.349   3.349
    26.71    3.349   3.349   3.349   3.349   3.349   3.349   3.349   3.349   3.349   3.349   3.349   3.349   3.349   3.349   3.349   3.349   3.349   3.349   3.349   3.349   3.349   3.349   3.349   3.349   3.349   3.349   3.349   3.349   3.349   3.349   3.349   3.349   3.349   3.349   3.349   3.349
    18.14    3.349   3.349   3.349   3.349   3.349   3.349   3.349   3.349   3.349   3.349   3.349   3.349   3.349   3.349   3.349   3.349   3.349   3.349   3.349   3.349   3.349   3.349   3.349   3.349   3.349   3.349   3.349   3.349   3.349   3.349   3.349   3.349   3.349   3.349   3.349   3.349
     9.57    3.349   3.349   3.349   3.349   3.349   3.349   3.349   3.349   3.349   3.349   3.349   3.349   3.349   3.349   3.349   3.349   3.349   3.349   3.349   3.349   3.349   3.349   3.349   3.349   3.349   3.349   3.349   3.349   3.349   3.349   3.349   3.349   3.349   3.349   3.349   3.349
     1.00    3.349   3.349   3.349   3.349   3.349   3.349   3.349   3.349   3.349   3.349   3.349   3.349   3.349   3.349   3.349   3.349   3.349   3.349   3.349   3.349   3.349   3.349   3.349   3.349   3.349   3.349   3.349   3.349   3.349   3.349   3.349   3.349   3.349   3.349   3.349   3.349

   Mean standard deviation across all grid points:
      u component:    3.337 m/s
      v component:    3.349 m/s
      w component:    3.349 m/s


U-component (X) statistics from the interpolated hub point:

   Mean =  20.9435 m/s
   TI   =  12.4928 %


Normalizing Parameters for Binary Data (approximate statistics):

   UBar  =  20.9448 m/s
   TI(u) =  13.6745 %
   TI(v) =  15.9910 %
   TI(w) =  15.9910 %

   Height Offset =   0.0000 m
   Grid Base     =   1.0000 m

Creating a PERIODIC output file.


Processing complete.  115.38 CPU seconds used.
