
This summary file was generated by TurbSim (v2.00.07a-bjj, 14-Jun-2016) on 03-Nov-2023 at 03:21:07.


Runtime Options:

      1901  Random seed #1
    RANLUX  Type of random number generator
         F  Output binary HH turbulence parameters?
         F  Output formatted turbulence parameters?
         F  Output AeroDyn HH files?
         F  Output AeroDyn FF files?
         T  Output BLADED FF files?
         F  Output tower data?
         F  Output formatted FF files?
         F  Output coherent turbulence time step file?
         T  Clockwise rotation when looking downwind?
 0 -  NONE  IEC turbulence models scaled to exact specified standard deviation


Turbine/Model Specifications:

        36  Vertical grid-point matrix dimension
        36  Horizontal grid-point matrix dimension
     0.100  Time step [seconds]
   660.000  Analysis time [seconds]
   660.000  Usable output time [seconds]
   151.000  Hub height [m]
   300.000  Grid height [m]
   300.000  Grid width [m]
     0.000  Vertical flow angle [degrees]
     0.000  Horizontal flow angle [degrees]


Meteorological Boundary Conditions:

    IECVKM  IEC von Karman spectral model
         1  IEC standard: IEC 61400-1 Ed. 3: 2005
         A  IEC turbulence characteristic
       NTM  IEC Normal Turbulence Model
       N/A  IEC Extreme Turbulence Model (ETM) "c" parameter [m/s]
       PL   Wind profile type
   153.000  Reference height [m]
    11.000  Reference wind speed [m/s]
       N/A  Jet height [m]
     0.200  Power law exponent
     0.030  Surface roughness length [m]


Non-IEC Meteorological Boundary Conditions:

       N/A  Site latitude [degrees]
       N/A  Gradient Richardson number
       N/A  Friction or shear velocity [m/s]
       N/A  Mixing layer depth [m]
       N/A  Mean hub u'w' Reynolds stress
       N/A  Mean hub u'v' Reynolds stress
       N/A  Mean hub v'w' Reynolds stress


Spatial Coherence Models:

       IEC  u-component coherence model
      NONE  v-component coherence model
      NONE  w-component coherence model
(   12.000, 0.353E-03)  u-component coherence parameters
                   N/A  v-component coherence parameters
                   N/A  w-component coherence parameters
       N/A  Coherence exponent


You have requested that the following file(s) be generated:

   G:\2023\OpenWECDV1.0.0_x64\BaseLIne\wind\WindL_V_11_seed_1901.wnd (AeroDyn/BLADED full-field wnd file)


Turbulence Simulation Scaling Parameter Summary:

   Turbulence model used                            =  IEC von Karman
   Turbulence characteristic                        =  A
   IEC turbulence type                              =  Normal Turbulence Model
   IEC standard                                     =  IEC 61400-1 Ed. 3: 2005
   Mean wind speed at hub height                    =   10.971 m/s
   Expected value of turbulence intensity at 15 m/s =   16.000%
   Characteristic value of standard deviation       =    2.213 m/s
   Turbulence scale                                 =   42.000 m
   Isotropic integral scale                         =  147.000 m
   Characteristic value of hub turbulence intensity =   20.167%
   Gradient Richardson number                       =    0.000

   Wind profile type                                =  Power law
   Power law exponent                               =    0.200
   Mean shear across rotor disk                     =    0.029 (m/s)/m
   Assumed rotor diameter                           =  300.000 m
   Surface roughness length                         =    0.030 m

   Nyquist frequency of turbulent wind field        =    5.000 Hz

   Number of time steps in the FFT                  =     6600
   Number of time steps output                      =     6600
   Number of points simulated                       =     1297


Mean Flow Angles:

   Vertical   =   0.0 degrees
   Horizontal =   0.0 degrees

Mean Wind Speed Profile:

   Height    Wind Speed   Horizontal Angle  Vertical Angle  U-comp (X)   V-comp (Y)   W-comp (Z)
     (m)        (m/s)         (degrees)       (degrees)       (m/s)        (m/s)        (m/s)   
   ------    ----------   ----------------  --------------  ----------   ----------   ----------
    301.0       12.59            0.00            0.00         12.59         0.00         0.00
    292.4       12.52            0.00            0.00         12.52         0.00         0.00
    283.9       12.45            0.00            0.00         12.45         0.00         0.00
    275.3       12.37            0.00            0.00         12.37         0.00         0.00
    266.7       12.29            0.00            0.00         12.29         0.00         0.00
    258.1       12.21            0.00            0.00         12.21         0.00         0.00
    249.6       12.13            0.00            0.00         12.13         0.00         0.00
    241.0       12.05            0.00            0.00         12.05         0.00         0.00
    232.4       11.96            0.00            0.00         11.96         0.00         0.00
    223.9       11.87            0.00            0.00         11.87         0.00         0.00
    215.3       11.78            0.00            0.00         11.78         0.00         0.00
    206.7       11.68            0.00            0.00         11.68         0.00         0.00
    198.1       11.58            0.00            0.00         11.58         0.00         0.00
    189.6       11.48            0.00            0.00         11.48         0.00         0.00
    181.0       11.38            0.00            0.00         11.38         0.00         0.00
    172.4       11.27            0.00            0.00         11.27         0.00         0.00
    163.9       11.15            0.00            0.00         11.15         0.00         0.00
    155.3       11.03            0.00            0.00         11.03         0.00         0.00
    151.0       10.97            0.00            0.00         10.97         0.00         0.00
    146.7       10.91            0.00            0.00         10.91         0.00         0.00
    138.1       10.78            0.00            0.00         10.78         0.00         0.00
    129.6       10.64            0.00            0.00         10.64         0.00         0.00
    121.0       10.50            0.00            0.00         10.50         0.00         0.00
    112.4       10.34            0.00            0.00         10.34         0.00         0.00
    103.9       10.18            0.00            0.00         10.18         0.00         0.00
     95.3       10.01            0.00            0.00         10.01         0.00         0.00
     86.7        9.82            0.00            0.00          9.82         0.00         0.00
     78.1        9.62            0.00            0.00          9.62         0.00         0.00
     69.6        9.40            0.00            0.00          9.40         0.00         0.00
     61.0        9.15            0.00            0.00          9.15         0.00         0.00
     52.4        8.88            0.00            0.00          8.88         0.00         0.00
     43.9        8.57            0.00            0.00          8.57         0.00         0.00
     35.3        8.20            0.00            0.00          8.20         0.00         0.00
     26.7        7.76            0.00            0.00          7.76         0.00         0.00
     18.1        7.18            0.00            0.00          7.18         0.00         0.00
      9.6        6.32            0.00            0.00          6.32         0.00         0.00
      1.0        4.02            0.00            0.00          4.02         0.00         0.00


Harvested Random Seeds after Generation of the Random Numbers:

    119307688 K 1
            0 K 2


Hub-Height Simulated Turbulence Statistical Summary:

   Type of Wind        Min (m/s)   Mean (m/s)    Max (m/s)  Sigma (m/s)       TI (%)
   ----------------    ---------   ----------    ---------  -----------       ------
   Longitudinal (u)         3.22        10.97        16.29        2.016       18.375
   Lateral (v)             -6.73        -0.00         7.42        2.171       19.789
   Vertical (w)            -7.22        -0.00         6.80        2.171       19.789
   U component              3.22        10.97        16.29        2.016       18.375
   V component             -6.73        -0.00         7.42        2.171       19.789
   W component             -7.22        -0.00         6.80        2.171       19.789
   Horizontal (U&V)         3.27        11.19        16.54        2.006       17.936
   Total                    4.77        11.41        16.69        1.939       16.998

                       Min Reynolds     Mean Reynolds    Max Reynolds    Correlation
   Product             Stress (m/s)^2   Stress (m/s)^2   Stress (m/s)^2  Coefficient
   ----------------    --------------   --------------   --------------  -----------
   u'w'                    -32.646            -0.446            19.033        -0.102
   u'v'                    -21.801            -0.206            23.114        -0.047
   v'w'                    -20.451            -0.146            33.508        -0.031


   Friction Velocity (Ustar)  =      0.668 m/s
   Maximum Instantaneous TKE  =     37.671 (m/s)^2
   Maximum Instantaneous CTKE =     19.707 (m/s)^2


Grid Point Variance Summary:

   Y-coord -150.00 -141.43 -132.86 -124.29 -115.71 -107.14  -98.57  -90.00  -81.43  -72.86  -64.29  -55.71  -47.14  -38.57  -30.00  -21.43  -12.86   -4.29    4.29   12.86   21.43   30.00   38.57   47.14   55.71   64.29   72.86   81.43   90.00   98.57  107.14  115.71  124.29  132.86  141.43  150.00

   Height   Standard deviation at grid points for the u component:
   301.00    2.043   1.999   2.116   2.094   2.058   2.029   2.194   2.269   2.242   2.392   2.304   2.360   2.366   2.381   2.441   2.358   2.377   2.302   2.482   2.487   2.619   2.528   2.350   2.202   2.307   2.217   2.216   2.193   2.328   2.399   2.341   2.479   2.404   2.533   2.601   2.633
   292.43    2.095   2.001   2.041   2.077   2.196   2.196   2.324   2.495   2.339   2.460   2.136   2.298   2.385   2.370   2.293   2.205   2.339   2.318   2.374   2.281   2.435   2.506   2.412   2.382   2.331   2.287   2.267   2.362   2.231   2.118   2.160   2.406   2.461   2.473   2.670   2.704
   283.86    2.191   2.217   2.113   2.101   2.222   2.312   2.297   2.315   2.377   2.345   2.281   2.273   2.228   2.217   2.307   2.199   2.317   2.357   2.315   2.179   2.218   2.322   2.379   2.333   2.320   2.147   2.291   2.227   2.174   2.059   2.118   2.370   2.455   2.436   2.718   2.728
   275.29    2.399   2.182   2.010   2.191   2.279   2.347   2.263   2.262   2.438   2.187   2.270   2.339   2.281   2.188   2.231   2.171   2.236   2.248   2.154   2.168   2.230   2.228   2.378   2.398   2.310   2.238   2.263   2.293   2.171   2.299   2.211   2.327   2.398   2.461   2.529   2.610
   266.71    2.384   2.153   2.076   2.192   2.323   2.309   2.218   2.423   2.309   2.186   2.172   2.340   2.141   2.198   2.162   2.321   2.263   2.097   2.063   2.275   2.199   2.282   2.257   2.142   2.269   2.243   2.143   2.221   2.272   2.397   2.347   2.336   2.408   2.413   2.486   2.507
   258.14    2.297   2.130   2.264   2.195   2.192   2.094   2.298   2.374   2.200   2.121   2.150   2.146   2.046   2.159   2.161   2.273   2.217   2.218   2.184   2.267   2.243   2.278   2.187   2.231   2.221   2.306   2.239   2.314   2.216   2.385   2.384   2.312   2.470   2.498   2.410   2.324
   249.57    2.405   2.208   2.095   1.989   2.140   2.029   2.172   2.261   2.276   2.178   2.122   2.081   2.112   2.110   2.320   2.265   2.206   2.257   2.192   2.262   2.148   2.199   2.069   2.124   2.187   2.353   2.401   2.425   2.293   2.338   2.402   2.485   2.391   2.337   2.280   2.276
   241.00    2.344   2.177   2.266   2.189   2.155   2.300   2.146   2.283   2.096   2.090   2.125   2.124   2.214   2.160   2.128   2.162   2.141   2.280   2.244   2.382   2.233   2.240   2.194   2.119   2.273   2.508   2.519   2.432   2.299   2.533   2.500   2.415   2.443   2.452   2.291   2.236
   232.43    2.380   2.382   2.348   2.339   2.219   2.181   2.326   2.368   2.199   2.096   2.064   2.165   2.350   2.320   2.211   2.232   2.223   2.266   2.297   2.266   2.482   2.286   2.027   2.086   2.275   2.383   2.338   2.341   2.359   2.428   2.491   2.549   2.437   2.354   2.314   2.305
   223.86    2.524   2.477   2.432   2.365   2.314   2.101   2.287   2.304   2.338   2.199   2.166   2.182   2.338   2.272   2.418   2.333   2.294   2.287   2.454   2.431   2.432   2.327   2.183   1.982   2.154   2.333   2.505   2.465   2.355   2.543   2.590   2.600   2.445   2.182   2.246   2.264
   215.29    2.527   2.448   2.469   2.332   2.314   2.357   2.361   2.514   2.513   2.244   2.076   2.144   2.253   2.221   2.351   2.272   2.277   2.272   2.439   2.460   2.402   2.293   2.176   2.092   2.065   2.220   2.305   2.401   2.387   2.361   2.558   2.628   2.565   2.186   2.362   2.174
   206.71    2.548   2.426   2.370   2.227   2.205   2.335   2.512   2.525   2.469   2.179   2.111   2.130   2.177   2.203   2.219   2.244   2.268   2.106   2.141   2.222   2.230   2.137   2.120   2.044   1.999   2.179   2.177   2.324   2.304   2.266   2.519   2.589   2.468   2.315   2.304   2.236
   198.14    2.439   2.464   2.381   2.388   2.153   2.345   2.470   2.422   2.300   2.058   2.129   2.201   2.185   2.231   2.186   2.187   2.246   2.014   2.095   2.156   2.121   1.936   2.153   2.052   2.232   2.218   2.266   2.407   2.456   2.289   2.404   2.572   2.571   2.479   2.366   2.194
   189.57    2.315   2.384   2.394   2.413   2.227   2.371   2.430   2.363   2.244   2.183   2.088   2.063   2.081   2.060   2.194   2.175   2.136   1.940   2.064   2.073   2.029   2.038   2.140   1.943   2.195   2.180   2.173   2.313   2.396   2.344   2.386   2.402   2.417   2.405   2.242   2.120
   181.00    2.291   2.323   2.317   2.356   2.353   2.463   2.519   2.326   2.402   2.363   2.229   2.260   2.163   1.994   2.043   2.007   2.042   1.942   2.013   2.032   2.184   2.019   2.044   2.099   2.260   2.021   2.239   2.340   2.377   2.370   2.374   2.472   2.500   2.215   2.202   2.260
   172.43    2.363   2.222   2.165   2.396   2.489   2.405   2.430   2.265   2.162   2.232   2.364   2.291   2.204   2.039   2.054   1.933   1.943   1.988   1.954   2.029   2.094   2.181   2.221   2.177   2.247   2.118   2.314   2.366   2.417   2.337   2.430   2.522   2.429   2.399   2.495   2.428
   163.86    2.220   2.268   2.281   2.430   2.530   2.432   2.361   2.380   2.348   2.091   2.291   2.329   2.335   2.185   2.014   1.898   1.818   1.826   1.876   2.088   2.131   2.234   2.216   2.285   2.296   2.300   2.482   2.214   2.216   2.365   2.544   2.537   2.511   2.506   2.441   2.470
   155.29    2.316   2.427   2.416   2.360   2.615   2.723   2.603   2.500   2.301   2.139   2.167   2.232   2.162   2.081   2.150   1.913   1.836   1.937   2.037   2.196   2.273   2.246   2.210   2.246   2.311   2.404   2.356   2.527   2.431   2.560   2.518   2.467   2.475   2.550   2.586   2.543
   146.71    2.445   2.404   2.465   2.470   2.586   2.625   2.625   2.467   2.331   2.186   2.281   2.153   1.967   1.950   1.970   1.995   1.943   1.995   2.136   2.109   2.088   2.094   2.188   2.312   2.229   2.383   2.526   2.696   2.724   2.533   2.441   2.573   2.512   2.541   2.500   2.376
   138.14    2.525   2.379   2.375   2.297   2.444   2.563   2.652   2.566   2.403   2.369   2.213   2.076   1.945   1.952   2.046   1.994   1.934   1.933   1.879   2.199   2.109   2.083   2.182   2.345   2.351   2.302   2.510   2.777   2.878   2.674   2.460   2.542   2.626   2.363   2.455   2.265
   129.57    2.163   2.335   2.358   2.262   2.456   2.368   2.464   2.573   2.390   2.288   2.176   2.116   1.989   1.950   2.186   2.078   2.084   2.018   1.898   1.984   2.075   2.007   2.135   2.163   2.309   2.413   2.564   2.747   2.750   2.654   2.486   2.630   2.489   2.323   2.322   2.359
   121.00    2.129   2.120   2.147   2.207   2.280   2.395   2.369   2.443   2.318   2.254   2.073   2.150   2.203   2.050   2.110   2.020   1.996   1.878   1.882   1.865   2.023   2.128   2.055   2.243   2.445   2.314   2.469   2.674   2.733   2.707   2.638   2.499   2.650   2.381   2.449   2.329
   112.43    2.146   2.077   2.195   2.228   2.071   2.032   2.199   2.384   2.363   2.271   2.162   2.163   2.192   2.112   2.109   2.013   1.875   1.879   1.941   1.984   1.978   2.015   2.152   2.370   2.338   2.504   2.483   2.520   2.635   2.574   2.697   2.496   2.393   2.313   2.422   2.563
   103.86    2.185   2.212   2.212   2.172   2.120   2.004   2.163   2.227   2.417   2.342   2.062   2.015   2.053   2.063   2.010   2.078   2.120   2.064   1.909   1.911   2.131   1.973   2.152   2.215   2.336   2.353   2.375   2.482   2.576   2.646   2.856   2.732   2.578   2.406   2.439   2.481
    95.29    2.232   2.258   2.341   2.192   2.095   2.125   2.141   2.179   2.302   2.144   2.145   2.154   1.865   1.985   1.878   2.008   2.105   2.007   1.853   2.052   1.957   2.027   2.092   2.233   2.351   2.579   2.403   2.535   2.464   2.487   2.559   2.701   2.429   2.484   2.450   2.547
    86.71    2.219   2.105   2.204   2.172   2.342   2.223   2.304   2.220   2.295   2.203   2.231   2.253   1.965   1.938   2.017   2.037   2.124   2.049   1.865   1.980   1.896   1.905   2.117   2.282   2.380   2.397   2.409   2.281   2.464   2.578   2.327   2.385   2.426   2.418   2.608   2.497
    78.14    2.211   2.036   2.203   2.214   2.437   2.454   2.478   2.394   2.281   2.387   2.377   2.309   2.136   1.949   1.986   2.005   2.116   2.135   2.153   2.053   1.995   1.829   1.990   2.326   2.336   2.410   2.456   2.429   2.454   2.321   2.443   2.396   2.228   2.380   2.589   2.542
    69.57    2.186   2.074   2.232   2.105   2.293   2.385   2.362   2.452   2.359   2.298   2.515   2.335   2.130   2.052   2.121   2.134   2.238   2.301   2.089   2.033   1.960   2.025   2.140   2.299   2.196   2.294   2.438   2.442   2.349   2.304   2.265   2.355   2.313   2.416   2.529   2.579
    61.00    2.114   2.115   2.216   2.243   2.323   2.301   2.267   2.368   2.475   2.509   2.565   2.482   2.372   2.172   2.292   2.325   2.354   2.275   2.084   2.153   2.063   2.098   2.144   2.024   2.201   2.164   2.379   2.371   2.342   2.210   2.177   2.208   2.372   2.477   2.626   2.436
    52.43    2.153   2.124   2.289   2.404   2.424   2.279   2.314   2.321   2.391   2.474   2.487   2.645   2.507   2.473   2.512   2.291   2.314   2.235   2.152   2.115   2.184   2.489   2.386   2.250   2.303   2.336   2.274   2.305   2.191   2.214   2.158   2.289   2.400   2.541   2.610   2.535
    43.86    2.285   2.257   2.160   2.312   2.275   2.412   2.512   2.484   2.504   2.583   2.518   2.539   2.456   2.366   2.294   2.376   2.173   2.293   2.328   2.188   2.303   2.474   2.461   2.286   2.254   2.292   2.312   2.223   2.174   2.226   2.134   2.199   2.278   2.546   2.560   2.464
    35.29    2.174   2.324   2.349   2.332   2.335   2.525   2.648   2.497   2.405   2.628   2.403   2.326   2.326   2.322   2.371   2.384   2.168   2.045   2.036   2.039   2.078   2.359   2.298   2.273   2.218   2.361   2.260   2.139   2.152   2.196   2.127   2.074   2.421   2.409   2.385   2.446
    26.71    2.375   2.299   2.334   2.477   2.594   2.521   2.632   2.603   2.529   2.606   2.480   2.433   2.311   2.363   2.458   2.359   2.162   2.042   2.036   2.114   2.006   2.106   2.351   2.297   2.304   2.384   2.234   2.120   2.093   2.172   2.168   2.171   2.402   2.477   2.443   2.328
    18.14    2.309   2.176   2.215   2.364   2.359   2.440   2.535   2.575   2.594   2.608   2.481   2.489   2.412   2.385   2.605   2.507   2.227   2.025   2.013   1.964   1.937   1.915   2.207   2.177   2.233   2.204   2.055   2.201   2.225   2.188   2.242   2.336   2.551   2.447   2.546   2.309
     9.57    2.111   2.093   2.292   2.140   2.235   2.325   2.459   2.496   2.482   2.491   2.495   2.442   2.371   2.526   2.611   2.550   2.188   2.078   2.021   1.758   1.775   1.819   2.104   2.260   2.211   2.033   2.018   2.115   2.100   2.051   2.099   2.243   2.268   2.425   2.531   2.389
     1.00    2.154   2.086   2.118   2.159   2.130   2.378   2.328   2.282   2.193   2.496   2.409   2.459   2.383   2.354   2.456   2.366   2.166   2.118   2.034   1.944   1.907   1.968   2.117   2.155   2.130   2.028   1.943   2.087   2.108   2.023   1.952   2.188   2.129   2.317   2.295   2.357

   Height   Standard deviation at grid points for the v component:
   301.00    2.171   2.171   2.171   2.171   2.171   2.171   2.171   2.171   2.171   2.171   2.171   2.171   2.171   2.171   2.171   2.171   2.171   2.171   2.171   2.171   2.171   2.171   2.171   2.171   2.171   2.171   2.171   2.171   2.171   2.171   2.171   2.171   2.171   2.171   2.171   2.171
   292.43    2.171   2.171   2.171   2.171   2.171   2.171   2.171   2.171   2.171   2.171   2.171   2.171   2.171   2.171   2.171   2.171   2.171   2.171   2.171   2.171   2.171   2.171   2.171   2.171   2.171   2.171   2.171   2.171   2.171   2.171   2.171   2.171   2.171   2.171   2.171   2.171
   283.86    2.171   2.171   2.171   2.171   2.171   2.171   2.171   2.171   2.171   2.171   2.171   2.171   2.171   2.171   2.171   2.171   2.171   2.171   2.171   2.171   2.171   2.171   2.171   2.171   2.171   2.171   2.171   2.171   2.171   2.171   2.171   2.171   2.171   2.171   2.171   2.171
   275.29    2.171   2.171   2.171   2.171   2.171   2.171   2.171   2.171   2.171   2.171   2.171   2.171   2.171   2.171   2.171   2.171   2.171   2.171   2.171   2.171   2.171   2.171   2.171   2.171   2.171   2.171   2.171   2.171   2.171   2.171   2.171   2.171   2.171   2.171   2.171   2.171
   266.71    2.171   2.171   2.171   2.171   2.171   2.171   2.171   2.171   2.171   2.171   2.171   2.171   2.171   2.171   2.171   2.171   2.171   2.171   2.171   2.171   2.171   2.171   2.171   2.171   2.171   2.171   2.171   2.171   2.171   2.171   2.171   2.171   2.171   2.171   2.171   2.171
   258.14    2.171   2.171   2.171   2.171   2.171   2.171   2.171   2.171   2.171   2.171   2.171   2.171   2.171   2.171   2.171   2.171   2.171   2.171   2.171   2.171   2.171   2.171   2.171   2.171   2.171   2.171   2.171   2.171   2.171   2.171   2.171   2.171   2.171   2.171   2.171   2.171
   249.57    2.171   2.171   2.171   2.171   2.171   2.171   2.171   2.171   2.171   2.171   2.171   2.171   2.171   2.171   2.171   2.171   2.171   2.171   2.171   2.171   2.171   2.171   2.171   2.171   2.171   2.171   2.171   2.171   2.171   2.171   2.171   2.171   2.171   2.171   2.171   2.171
   241.00    2.171   2.171   2.171   2.171   2.171   2.171   2.171   2.171   2.171   2.171   2.171   2.171   2.171   2.171   2.171   2.171   2.171   2.171   2.171   2.171   2.171   2.171   2.171   2.171   2.171   2.171   2.171   2.171   2.171   2.171   2.171   2.171   2.171   2.171   2.171   2.171
   232.43    2.171   2.171   2.171   2.171   2.171   2.171   2.171   2.171   2.171   2.171   2.171   2.171   2.171   2.171   2.171   2.171   2.171   2.171   2.171   2.171   2.171   2.171   2.171   2.171   2.171   2.171   2.171   2.171   2.171   2.171   2.171   2.171   2.171   2.171   2.171   2.171
   223.86    2.171   2.171   2.171   2.171   2.171   2.171   2.171   2.171   2.171   2.171   2.171   2.171   2.171   2.171   2.171   2.171   2.171   2.171   2.171   2.171   2.171   2.171   2.171   2.171   2.171   2.171   2.171   2.171   2.171   2.171   2.171   2.171   2.171   2.171   2.171   2.171
   215.29    2.171   2.171   2.171   2.171   2.171   2.171   2.171   2.171   2.171   2.171   2.171   2.171   2.171   2.171   2.171   2.171   2.171   2.171   2.171   2.171   2.171   2.171   2.171   2.171   2.171   2.171   2.171   2.171   2.171   2.171   2.171   2.171   2.171   2.171   2.171   2.171
   206.71    2.171   2.171   2.171   2.171   2.171   2.171   2.171   2.171   2.171   2.171   2.171   2.171   2.171   2.171   2.171   2.171   2.171   2.171   2.171   2.171   2.171   2.171   2.171   2.171   2.171   2.171   2.171   2.171   2.171   2.171   2.171   2.171   2.171   2.171   2.171   2.171
   198.14    2.171   2.171   2.171   2.171   2.171   2.171   2.171   2.171   2.171   2.171   2.171   2.171   2.171   2.171   2.171   2.171   2.171   2.171   2.171   2.171   2.171   2.171   2.171   2.171   2.171   2.171   2.171   2.171   2.171   2.171   2.171   2.171   2.171   2.171   2.171   2.171
   189.57    2.171   2.171   2.171   2.171   2.171   2.171   2.171   2.171   2.171   2.171   2.171   2.171   2.171   2.171   2.171   2.171   2.171   2.171   2.171   2.171   2.171   2.171   2.171   2.171   2.171   2.171   2.171   2.171   2.171   2.171   2.171   2.171   2.171   2.171   2.171   2.171
   181.00    2.171   2.171   2.171   2.171   2.171   2.171   2.171   2.171   2.171   2.171   2.171   2.171   2.171   2.171   2.171   2.171   2.171   2.171   2.171   2.171   2.171   2.171   2.171   2.171   2.171   2.171   2.171   2.171   2.171   2.171   2.171   2.171   2.171   2.171   2.171   2.171
   172.43    2.171   2.171   2.171   2.171   2.171   2.171   2.171   2.171   2.171   2.171   2.171   2.171   2.171   2.171   2.171   2.171   2.171   2.171   2.171   2.171   2.171   2.171   2.171   2.171   2.171   2.171   2.171   2.171   2.171   2.171   2.171   2.171   2.171   2.171   2.171   2.171
   163.86    2.171   2.171   2.171   2.171   2.171   2.171   2.171   2.171   2.171   2.171   2.171   2.171   2.171   2.171   2.171   2.171   2.171   2.171   2.171   2.171   2.171   2.171   2.171   2.171   2.171   2.171   2.171   2.171   2.171   2.171   2.171   2.171   2.171   2.171   2.171   2.171
   155.29    2.171   2.171   2.171   2.171   2.171   2.171   2.171   2.171   2.171   2.171   2.171   2.171   2.171   2.171   2.171   2.171   2.171   2.171   2.171   2.171   2.171   2.171   2.171   2.171   2.171   2.171   2.171   2.171   2.171   2.171   2.171   2.171   2.171   2.171   2.171   2.171
   146.71    2.171   2.171   2.171   2.171   2.171   2.171   2.171   2.171   2.171   2.171   2.171   2.171   2.171   2.171   2.171   2.171   2.171   2.171   2.171   2.171   2.171   2.171   2.171   2.171   2.171   2.171   2.171   2.171   2.171   2.171   2.171   2.171   2.171   2.171   2.171   2.171
   138.14    2.171   2.171   2.171   2.171   2.171   2.171   2.171   2.171   2.171   2.171   2.171   2.171   2.171   2.171   2.171   2.171   2.171   2.171   2.171   2.171   2.171   2.171   2.171   2.171   2.171   2.171   2.171   2.171   2.171   2.171   2.171   2.171   2.171   2.171   2.171   2.171
   129.57    2.171   2.171   2.171   2.171   2.171   2.171   2.171   2.171   2.171   2.171   2.171   2.171   2.171   2.171   2.171   2.171   2.171   2.171   2.171   2.171   2.171   2.171   2.171   2.171   2.171   2.171   2.171   2.171   2.171   2.171   2.171   2.171   2.171   2.171   2.171   2.171
   121.00    2.171   2.171   2.171   2.171   2.171   2.171   2.171   2.171   2.171   2.171   2.171   2.171   2.171   2.171   2.171   2.171   2.171   2.171   2.171   2.171   2.171   2.171   2.171   2.171   2.171   2.171   2.171   2.171   2.171   2.171   2.171   2.171   2.171   2.171   2.171   2.171
   112.43    2.171   2.171   2.171   2.171   2.171   2.171   2.171   2.171   2.171   2.171   2.171   2.171   2.171   2.171   2.171   2.171   2.171   2.171   2.171   2.171   2.171   2.171   2.171   2.171   2.171   2.171   2.171   2.171   2.171   2.171   2.171   2.171   2.171   2.171   2.171   2.171
   103.86    2.171   2.171   2.171   2.171   2.171   2.171   2.171   2.171   2.171   2.171   2.171   2.171   2.171   2.171   2.171   2.171   2.171   2.171   2.171   2.171   2.171   2.171   2.171   2.171   2.171   2.171   2.171   2.171   2.171   2.171   2.171   2.171   2.171   2.171   2.171   2.171
    95.29    2.171   2.171   2.171   2.171   2.171   2.171   2.171   2.171   2.171   2.171   2.171   2.171   2.171   2.171   2.171   2.171   2.171   2.171   2.171   2.171   2.171   2.171   2.171   2.171   2.171   2.171   2.171   2.171   2.171   2.171   2.171   2.171   2.171   2.171   2.171   2.171
    86.71    2.171   2.171   2.171   2.171   2.171   2.171   2.171   2.171   2.171   2.171   2.171   2.171   2.171   2.171   2.171   2.171   2.171   2.171   2.171   2.171   2.171   2.171   2.171   2.171   2.171   2.171   2.171   2.171   2.171   2.171   2.171   2.171   2.171   2.171   2.171   2.171
    78.14    2.171   2.171   2.171   2.171   2.171   2.171   2.171   2.171   2.171   2.171   2.171   2.171   2.171   2.171   2.171   2.171   2.171   2.171   2.171   2.171   2.171   2.171   2.171   2.171   2.171   2.171   2.171   2.171   2.171   2.171   2.171   2.171   2.171   2.171   2.171   2.171
    69.57    2.171   2.171   2.171   2.171   2.171   2.171   2.171   2.171   2.171   2.171   2.171   2.171   2.171   2.171   2.171   2.171   2.171   2.171   2.171   2.171   2.171   2.171   2.171   2.171   2.171   2.171   2.171   2.171   2.171   2.171   2.171   2.171   2.171   2.171   2.171   2.171
    61.00    2.171   2.171   2.171   2.171   2.171   2.171   2.171   2.171   2.171   2.171   2.171   2.171   2.171   2.171   2.171   2.171   2.171   2.171   2.171   2.171   2.171   2.171   2.171   2.171   2.171   2.171   2.171   2.171   2.171   2.171   2.171   2.171   2.171   2.171   2.171   2.171
    52.43    2.171   2.171   2.171   2.171   2.171   2.171   2.171   2.171   2.171   2.171   2.171   2.171   2.171   2.171   2.171   2.171   2.171   2.171   2.171   2.171   2.171   2.171   2.171   2.171   2.171   2.171   2.171   2.171   2.171   2.171   2.171   2.171   2.171   2.171   2.171   2.171
    43.86    2.171   2.171   2.171   2.171   2.171   2.171   2.171   2.171   2.171   2.171   2.171   2.171   2.171   2.171   2.171   2.171   2.171   2.171   2.171   2.171   2.171   2.171   2.171   2.171   2.171   2.171   2.171   2.171   2.171   2.171   2.171   2.171   2.171   2.171   2.171   2.171
    35.29    2.171   2.171   2.171   2.171   2.171   2.171   2.171   2.171   2.171   2.171   2.171   2.171   2.171   2.171   2.171   2.171   2.171   2.171   2.171   2.171   2.171   2.171   2.171   2.171   2.171   2.171   2.171   2.171   2.171   2.171   2.171   2.171   2.171   2.171   2.171   2.171
    26.71    2.171   2.171   2.171   2.171   2.171   2.171   2.171   2.171   2.171   2.171   2.171   2.171   2.171   2.171   2.171   2.171   2.171   2.171   2.171   2.171   2.171   2.171   2.171   2.171   2.171   2.171   2.171   2.171   2.171   2.171   2.171   2.171   2.171   2.171   2.171   2.171
    18.14    2.171   2.171   2.171   2.171   2.171   2.171   2.171   2.171   2.171   2.171   2.171   2.171   2.171   2.171   2.171   2.171   2.171   2.171   2.171   2.171   2.171   2.171   2.171   2.171   2.171   2.171   2.171   2.171   2.171   2.171   2.171   2.171   2.171   2.171   2.171   2.171
     9.57    2.171   2.171   2.171   2.171   2.171   2.171   2.171   2.171   2.171   2.171   2.171   2.171   2.171   2.171   2.171   2.171   2.171   2.171   2.171   2.171   2.171   2.171   2.171   2.171   2.171   2.171   2.171   2.171   2.171   2.171   2.171   2.171   2.171   2.171   2.171   2.171
     1.00    2.171   2.171   2.171   2.171   2.171   2.171   2.171   2.171   2.171   2.171   2.171   2.171   2.171   2.171   2.171   2.171   2.171   2.171   2.171   2.171   2.171   2.171   2.171   2.171   2.171   2.171   2.171   2.171   2.171   2.171   2.171   2.171   2.171   2.171   2.171   2.171

   Height   Standard deviation at grid points for the w component:
   301.00    2.171   2.171   2.171   2.171   2.171   2.171   2.171   2.171   2.171   2.171   2.171   2.171   2.171   2.171   2.171   2.171   2.171   2.171   2.171   2.171   2.171   2.171   2.171   2.171   2.171   2.171   2.171   2.171   2.171   2.171   2.171   2.171   2.171   2.171   2.171   2.171
   292.43    2.171   2.171   2.171   2.171   2.171   2.171   2.171   2.171   2.171   2.171   2.171   2.171   2.171   2.171   2.171   2.171   2.171   2.171   2.171   2.171   2.171   2.171   2.171   2.171   2.171   2.171   2.171   2.171   2.171   2.171   2.171   2.171   2.171   2.171   2.171   2.171
   283.86    2.171   2.171   2.171   2.171   2.171   2.171   2.171   2.171   2.171   2.171   2.171   2.171   2.171   2.171   2.171   2.171   2.171   2.171   2.171   2.171   2.171   2.171   2.171   2.171   2.171   2.171   2.171   2.171   2.171   2.171   2.171   2.171   2.171   2.171   2.171   2.171
   275.29    2.171   2.171   2.171   2.171   2.171   2.171   2.171   2.171   2.171   2.171   2.171   2.171   2.171   2.171   2.171   2.171   2.171   2.171   2.171   2.171   2.171   2.171   2.171   2.171   2.171   2.171   2.171   2.171   2.171   2.171   2.171   2.171   2.171   2.171   2.171   2.171
   266.71    2.171   2.171   2.171   2.171   2.171   2.171   2.171   2.171   2.171   2.171   2.171   2.171   2.171   2.171   2.171   2.171   2.171   2.171   2.171   2.171   2.171   2.171   2.171   2.171   2.171   2.171   2.171   2.171   2.171   2.171   2.171   2.171   2.171   2.171   2.171   2.171
   258.14    2.171   2.171   2.171   2.171   2.171   2.171   2.171   2.171   2.171   2.171   2.171   2.171   2.171   2.171   2.171   2.171   2.171   2.171   2.171   2.171   2.171   2.171   2.171   2.171   2.171   2.171   2.171   2.171   2.171   2.171   2.171   2.171   2.171   2.171   2.171   2.171
   249.57    2.171   2.171   2.171   2.171   2.171   2.171   2.171   2.171   2.171   2.171   2.171   2.171   2.171   2.171   2.171   2.171   2.171   2.171   2.171   2.171   2.171   2.171   2.171   2.171   2.171   2.171   2.171   2.171   2.171   2.171   2.171   2.171   2.171   2.171   2.171   2.171
   241.00    2.171   2.171   2.171   2.171   2.171   2.171   2.171   2.171   2.171   2.171   2.171   2.171   2.171   2.171   2.171   2.171   2.171   2.171   2.171   2.171   2.171   2.171   2.171   2.171   2.171   2.171   2.171   2.171   2.171   2.171   2.171   2.171   2.171   2.171   2.171   2.171
   232.43    2.171   2.171   2.171   2.171   2.171   2.171   2.171   2.171   2.171   2.171   2.171   2.171   2.171   2.171   2.171   2.171   2.171   2.171   2.171   2.171   2.171   2.171   2.171   2.171   2.171   2.171   2.171   2.171   2.171   2.171   2.171   2.171   2.171   2.171   2.171   2.171
   223.86    2.171   2.171   2.171   2.171   2.171   2.171   2.171   2.171   2.171   2.171   2.171   2.171   2.171   2.171   2.171   2.171   2.171   2.171   2.171   2.171   2.171   2.171   2.171   2.171   2.171   2.171   2.171   2.171   2.171   2.171   2.171   2.171   2.171   2.171   2.171   2.171
   215.29    2.171   2.171   2.171   2.171   2.171   2.171   2.171   2.171   2.171   2.171   2.171   2.171   2.171   2.171   2.171   2.171   2.171   2.171   2.171   2.171   2.171   2.171   2.171   2.171   2.171   2.171   2.171   2.171   2.171   2.171   2.171   2.171   2.171   2.171   2.171   2.171
   206.71    2.171   2.171   2.171   2.171   2.171   2.171   2.171   2.171   2.171   2.171   2.171   2.171   2.171   2.171   2.171   2.171   2.171   2.171   2.171   2.171   2.171   2.171   2.171   2.171   2.171   2.171   2.171   2.171   2.171   2.171   2.171   2.171   2.171   2.171   2.171   2.171
   198.14    2.171   2.171   2.171   2.171   2.171   2.171   2.171   2.171   2.171   2.171   2.171   2.171   2.171   2.171   2.171   2.171   2.171   2.171   2.171   2.171   2.171   2.171   2.171   2.171   2.171   2.171   2.171   2.171   2.171   2.171   2.171   2.171   2.171   2.171   2.171   2.171
   189.57    2.171   2.171   2.171   2.171   2.171   2.171   2.171   2.171   2.171   2.171   2.171   2.171   2.171   2.171   2.171   2.171   2.171   2.171   2.171   2.171   2.171   2.171   2.171   2.171   2.171   2.171   2.171   2.171   2.171   2.171   2.171   2.171   2.171   2.171   2.171   2.171
   181.00    2.171   2.171   2.171   2.171   2.171   2.171   2.171   2.171   2.171   2.171   2.171   2.171   2.171   2.171   2.171   2.171   2.171   2.171   2.171   2.171   2.171   2.171   2.171   2.171   2.171   2.171   2.171   2.171   2.171   2.171   2.171   2.171   2.171   2.171   2.171   2.171
   172.43    2.171   2.171   2.171   2.171   2.171   2.171   2.171   2.171   2.171   2.171   2.171   2.171   2.171   2.171   2.171   2.171   2.171   2.171   2.171   2.171   2.171   2.171   2.171   2.171   2.171   2.171   2.171   2.171   2.171   2.171   2.171   2.171   2.171   2.171   2.171   2.171
   163.86    2.171   2.171   2.171   2.171   2.171   2.171   2.171   2.171   2.171   2.171   2.171   2.171   2.171   2.171   2.171   2.171   2.171   2.171   2.171   2.171   2.171   2.171   2.171   2.171   2.171   2.171   2.171   2.171   2.171   2.171   2.171   2.171   2.171   2.171   2.171   2.171
   155.29    2.171   2.171   2.171   2.171   2.171   2.171   2.171   2.171   2.171   2.171   2.171   2.171   2.171   2.171   2.171   2.171   2.171   2.171   2.171   2.171   2.171   2.171   2.171   2.171   2.171   2.171   2.171   2.171   2.171   2.171   2.171   2.171   2.171   2.171   2.171   2.171
   146.71    2.171   2.171   2.171   2.171   2.171   2.171   2.171   2.171   2.171   2.171   2.171   2.171   2.171   2.171   2.171   2.171   2.171   2.171   2.171   2.171   2.171   2.171   2.171   2.171   2.171   2.171   2.171   2.171   2.171   2.171   2.171   2.171   2.171   2.171   2.171   2.171
   138.14    2.171   2.171   2.171   2.171   2.171   2.171   2.171   2.171   2.171   2.171   2.171   2.171   2.171   2.171   2.171   2.171   2.171   2.171   2.171   2.171   2.171   2.171   2.171   2.171   2.171   2.171   2.171   2.171   2.171   2.171   2.171   2.171   2.171   2.171   2.171   2.171
   129.57    2.171   2.171   2.171   2.171   2.171   2.171   2.171   2.171   2.171   2.171   2.171   2.171   2.171   2.171   2.171   2.171   2.171   2.171   2.171   2.171   2.171   2.171   2.171   2.171   2.171   2.171   2.171   2.171   2.171   2.171   2.171   2.171   2.171   2.171   2.171   2.171
   121.00    2.171   2.171   2.171   2.171   2.171   2.171   2.171   2.171   2.171   2.171   2.171   2.171   2.171   2.171   2.171   2.171   2.171   2.171   2.171   2.171   2.171   2.171   2.171   2.171   2.171   2.171   2.171   2.171   2.171   2.171   2.171   2.171   2.171   2.171   2.171   2.171
   112.43    2.171   2.171   2.171   2.171   2.171   2.171   2.171   2.171   2.171   2.171   2.171   2.171   2.171   2.171   2.171   2.171   2.171   2.171   2.171   2.171   2.171   2.171   2.171   2.171   2.171   2.171   2.171   2.171   2.171   2.171   2.171   2.171   2.171   2.171   2.171   2.171
   103.86    2.171   2.171   2.171   2.171   2.171   2.171   2.171   2.171   2.171   2.171   2.171   2.171   2.171   2.171   2.171   2.171   2.171   2.171   2.171   2.171   2.171   2.171   2.171   2.171   2.171   2.171   2.171   2.171   2.171   2.171   2.171   2.171   2.171   2.171   2.171   2.171
    95.29    2.171   2.171   2.171   2.171   2.171   2.171   2.171   2.171   2.171   2.171   2.171   2.171   2.171   2.171   2.171   2.171   2.171   2.171   2.171   2.171   2.171   2.171   2.171   2.171   2.171   2.171   2.171   2.171   2.171   2.171   2.171   2.171   2.171   2.171   2.171   2.171
    86.71    2.171   2.171   2.171   2.171   2.171   2.171   2.171   2.171   2.171   2.171   2.171   2.171   2.171   2.171   2.171   2.171   2.171   2.171   2.171   2.171   2.171   2.171   2.171   2.171   2.171   2.171   2.171   2.171   2.171   2.171   2.171   2.171   2.171   2.171   2.171   2.171
    78.14    2.171   2.171   2.171   2.171   2.171   2.171   2.171   2.171   2.171   2.171   2.171   2.171   2.171   2.171   2.171   2.171   2.171   2.171   2.171   2.171   2.171   2.171   2.171   2.171   2.171   2.171   2.171   2.171   2.171   2.171   2.171   2.171   2.171   2.171   2.171   2.171
    69.57    2.171   2.171   2.171   2.171   2.171   2.171   2.171   2.171   2.171   2.171   2.171   2.171   2.171   2.171   2.171   2.171   2.171   2.171   2.171   2.171   2.171   2.171   2.171   2.171   2.171   2.171   2.171   2.171   2.171   2.171   2.171   2.171   2.171   2.171   2.171   2.171
    61.00    2.171   2.171   2.171   2.171   2.171   2.171   2.171   2.171   2.171   2.171   2.171   2.171   2.171   2.171   2.171   2.171   2.171   2.171   2.171   2.171   2.171   2.171   2.171   2.171   2.171   2.171   2.171   2.171   2.171   2.171   2.171   2.171   2.171   2.171   2.171   2.171
    52.43    2.171   2.171   2.171   2.171   2.171   2.171   2.171   2.171   2.171   2.171   2.171   2.171   2.171   2.171   2.171   2.171   2.171   2.171   2.171   2.171   2.171   2.171   2.171   2.171   2.171   2.171   2.171   2.171   2.171   2.171   2.171   2.171   2.171   2.171   2.171   2.171
    43.86    2.171   2.171   2.171   2.171   2.171   2.171   2.171   2.171   2.171   2.171   2.171   2.171   2.171   2.171   2.171   2.171   2.171   2.171   2.171   2.171   2.171   2.171   2.171   2.171   2.171   2.171   2.171   2.171   2.171   2.171   2.171   2.171   2.171   2.171   2.171   2.171
    35.29    2.171   2.171   2.171   2.171   2.171   2.171   2.171   2.171   2.171   2.171   2.171   2.171   2.171   2.171   2.171   2.171   2.171   2.171   2.171   2.171   2.171   2.171   2.171   2.171   2.171   2.171   2.171   2.171   2.171   2.171   2.171   2.171   2.171   2.171   2.171   2.171
    26.71    2.171   2.171   2.171   2.171   2.171   2.171   2.171   2.171   2.171   2.171   2.171   2.171   2.171   2.171   2.171   2.171   2.171   2.171   2.171   2.171   2.171   2.171   2.171   2.171   2.171   2.171   2.171   2.171   2.171   2.171   2.171   2.171   2.171   2.171   2.171   2.171
    18.14    2.171   2.171   2.171   2.171   2.171   2.171   2.171   2.171   2.171   2.171   2.171   2.171   2.171   2.171   2.171   2.171   2.171   2.171   2.171   2.171   2.171   2.171   2.171   2.171   2.171   2.171   2.171   2.171   2.171   2.171   2.171   2.171   2.171   2.171   2.171   2.171
     9.57    2.171   2.171   2.171   2.171   2.171   2.171   2.171   2.171   2.171   2.171   2.171   2.171   2.171   2.171   2.171   2.171   2.171   2.171   2.171   2.171   2.171   2.171   2.171   2.171   2.171   2.171   2.171   2.171   2.171   2.171   2.171   2.171   2.171   2.171   2.171   2.171
     1.00    2.171   2.171   2.171   2.171   2.171   2.171   2.171   2.171   2.171   2.171   2.171   2.171   2.171   2.171   2.171   2.171   2.171   2.171   2.171   2.171   2.171   2.171   2.171   2.171   2.171   2.171   2.171   2.171   2.171   2.171   2.171   2.171   2.171   2.171   2.171   2.171

   Mean standard deviation across all grid points:
      u component:    2.280 m/s
      v component:    2.171 m/s
      w component:    2.171 m/s


U-component (X) statistics from the interpolated hub point:

   Mean =  10.9704 m/s
   TI   =  16.1455 %


Normalizing Parameters for Binary Data (approximate statistics):

   UBar  =  10.9711 m/s
   TI(u) =  18.3750 %
   TI(v) =  19.7889 %
   TI(w) =  19.7889 %

   Height Offset =   0.0000 m
   Grid Base     =   1.0000 m

Creating a PERIODIC output file.


Processing complete.  118.7 CPU seconds used.
