
This summary file was generated by TurbSim (v2.00.07a-bjj, 14-Jun-2016) on 03-Nov-2023 at 03:21:07.


Runtime Options:

      2701  Random seed #1
    RANLUX  Type of random number generator
         F  Output binary HH turbulence parameters?
         F  Output formatted turbulence parameters?
         F  Output AeroDyn HH files?
         F  Output AeroDyn FF files?
         T  Output BLADED FF files?
         F  Output tower data?
         F  Output formatted FF files?
         F  Output coherent turbulence time step file?
         T  Clockwise rotation when looking downwind?
 0 -  NONE  IEC turbulence models scaled to exact specified standard deviation


Turbine/Model Specifications:

        36  Vertical grid-point matrix dimension
        36  Horizontal grid-point matrix dimension
     0.100  Time step [seconds]
   660.000  Analysis time [seconds]
   660.000  Usable output time [seconds]
   151.000  Hub height [m]
   300.000  Grid height [m]
   300.000  Grid width [m]
     0.000  Vertical flow angle [degrees]
     0.000  Horizontal flow angle [degrees]


Meteorological Boundary Conditions:

    IECVKM  IEC von Karman spectral model
         1  IEC standard: IEC 61400-1 Ed. 3: 2005
         A  IEC turbulence characteristic
       NTM  IEC Normal Turbulence Model
       N/A  IEC Extreme Turbulence Model (ETM) "c" parameter [m/s]
       PL   Wind profile type
   153.000  Reference height [m]
    13.000  Reference wind speed [m/s]
       N/A  Jet height [m]
     0.200  Power law exponent
     0.030  Surface roughness length [m]


Non-IEC Meteorological Boundary Conditions:

       N/A  Site latitude [degrees]
       N/A  Gradient Richardson number
       N/A  Friction or shear velocity [m/s]
       N/A  Mixing layer depth [m]
       N/A  Mean hub u'w' Reynolds stress
       N/A  Mean hub u'v' Reynolds stress
       N/A  Mean hub v'w' Reynolds stress


Spatial Coherence Models:

       IEC  u-component coherence model
      NONE  v-component coherence model
      NONE  w-component coherence model
(   12.000, 0.353E-03)  u-component coherence parameters
                   N/A  v-component coherence parameters
                   N/A  w-component coherence parameters
       N/A  Coherence exponent


You have requested that the following file(s) be generated:

   G:\2023\OpenWECDV1.0.0_x64\BaseLIne\wind\WindL_V_13_seed_2701.wnd (AeroDyn/BLADED full-field wnd file)


Turbulence Simulation Scaling Parameter Summary:

   Turbulence model used                            =  IEC von Karman
   Turbulence characteristic                        =  A
   IEC turbulence type                              =  Normal Turbulence Model
   IEC standard                                     =  IEC 61400-1 Ed. 3: 2005
   Mean wind speed at hub height                    =   12.966 m/s
   Expected value of turbulence intensity at 15 m/s =   16.000%
   Characteristic value of standard deviation       =    2.452 m/s
   Turbulence scale                                 =   42.000 m
   Isotropic integral scale                         =  147.000 m
   Characteristic value of hub turbulence intensity =   18.910%
   Gradient Richardson number                       =    0.000

   Wind profile type                                =  Power law
   Power law exponent                               =    0.200
   Mean shear across rotor disk                     =    0.034 (m/s)/m
   Assumed rotor diameter                           =  300.000 m
   Surface roughness length                         =    0.030 m

   Nyquist frequency of turbulent wind field        =    5.000 Hz

   Number of time steps in the FFT                  =     6600
   Number of time steps output                      =     6600
   Number of points simulated                       =     1297


Mean Flow Angles:

   Vertical   =   0.0 degrees
   Horizontal =   0.0 degrees

Mean Wind Speed Profile:

   Height    Wind Speed   Horizontal Angle  Vertical Angle  U-comp (X)   V-comp (Y)   W-comp (Z)
     (m)        (m/s)         (degrees)       (degrees)       (m/s)        (m/s)        (m/s)   
   ------    ----------   ----------------  --------------  ----------   ----------   ----------
    301.0       14.88            0.00            0.00         14.88         0.00         0.00
    292.4       14.80            0.00            0.00         14.80         0.00         0.00
    283.9       14.71            0.00            0.00         14.71         0.00         0.00
    275.3       14.62            0.00            0.00         14.62         0.00         0.00
    266.7       14.53            0.00            0.00         14.53         0.00         0.00
    258.1       14.43            0.00            0.00         14.43         0.00         0.00
    249.6       14.34            0.00            0.00         14.34         0.00         0.00
    241.0       14.24            0.00            0.00         14.24         0.00         0.00
    232.4       14.13            0.00            0.00         14.13         0.00         0.00
    223.9       14.03            0.00            0.00         14.03         0.00         0.00
    215.3       13.92            0.00            0.00         13.92         0.00         0.00
    206.7       13.81            0.00            0.00         13.81         0.00         0.00
    198.1       13.69            0.00            0.00         13.69         0.00         0.00
    189.6       13.57            0.00            0.00         13.57         0.00         0.00
    181.0       13.44            0.00            0.00         13.44         0.00         0.00
    172.4       13.31            0.00            0.00         13.31         0.00         0.00
    163.9       13.18            0.00            0.00         13.18         0.00         0.00
    155.3       13.04            0.00            0.00         13.04         0.00         0.00
    151.0       12.97            0.00            0.00         12.97         0.00         0.00
    146.7       12.89            0.00            0.00         12.89         0.00         0.00
    138.1       12.74            0.00            0.00         12.74         0.00         0.00
    129.6       12.57            0.00            0.00         12.57         0.00         0.00
    121.0       12.40            0.00            0.00         12.40         0.00         0.00
    112.4       12.22            0.00            0.00         12.22         0.00         0.00
    103.9       12.03            0.00            0.00         12.03         0.00         0.00
     95.3       11.83            0.00            0.00         11.83         0.00         0.00
     86.7       11.60            0.00            0.00         11.60         0.00         0.00
     78.1       11.37            0.00            0.00         11.37         0.00         0.00
     69.6       11.10            0.00            0.00         11.10         0.00         0.00
     61.0       10.82            0.00            0.00         10.82         0.00         0.00
     52.4       10.49            0.00            0.00         10.49         0.00         0.00
     43.9       10.13            0.00            0.00         10.13         0.00         0.00
     35.3        9.69            0.00            0.00          9.69         0.00         0.00
     26.7        9.17            0.00            0.00          9.17         0.00         0.00
     18.1        8.49            0.00            0.00          8.49         0.00         0.00
      9.6        7.47            0.00            0.00          7.47         0.00         0.00
      1.0        4.75            0.00            0.00          4.75         0.00         0.00


Harvested Random Seeds after Generation of the Random Numbers:

    119307688 K 1
            0 K 2


Hub-Height Simulated Turbulence Statistical Summary:

   Type of Wind        Min (m/s)   Mean (m/s)    Max (m/s)  Sigma (m/s)       TI (%)
   ----------------    ---------   ----------    ---------  -----------       ------
   Longitudinal (u)         4.68        12.97        23.45        2.617       20.184
   Lateral (v)             -6.10        -0.00         7.63        2.408       18.570
   Vertical (w)            -7.82         0.00         7.80        2.408       18.570
   U component              4.68        12.97        23.45        2.617       20.184
   V component             -6.10        -0.00         7.63        2.408       18.570
   W component             -7.82         0.00         7.80        2.408       18.570
   Horizontal (U&V)         4.68        13.19        23.67        2.595       19.673
   Total                    5.68        13.42        23.70        2.561       19.088

                       Min Reynolds     Mean Reynolds    Max Reynolds    Correlation
   Product             Stress (m/s)^2   Stress (m/s)^2   Stress (m/s)^2  Coefficient
   ----------------    --------------   --------------   --------------  -----------
   u'w'                    -35.106            -1.197            21.899        -0.190
   u'v'                    -26.542             0.867            38.977         0.138
   v'w'                    -36.003            -0.468            33.627        -0.081


   Friction Velocity (Ustar)  =      1.094 m/s
   Maximum Instantaneous TKE  =     60.894 (m/s)^2
   Maximum Instantaneous CTKE =     22.738 (m/s)^2


Grid Point Variance Summary:

   Y-coord -150.00 -141.43 -132.86 -124.29 -115.71 -107.14  -98.57  -90.00  -81.43  -72.86  -64.29  -55.71  -47.14  -38.57  -30.00  -21.43  -12.86   -4.29    4.29   12.86   21.43   30.00   38.57   47.14   55.71   64.29   72.86   81.43   90.00   98.57  107.14  115.71  124.29  132.86  141.43  150.00

   Height   Standard deviation at grid points for the u component:
   301.00    2.189   2.259   2.252   2.172   2.336   2.411   2.583   2.570   2.592   2.540   2.401   2.442   2.452   2.507   2.576   2.325   2.364   2.354   2.459   2.475   2.595   2.464   2.493   2.477   2.383   2.417   2.353   2.367   2.306   2.298   2.332   2.432   2.529   2.439   2.483   2.435
   292.43    2.192   2.136   2.231   2.234   2.231   2.214   2.430   2.509   2.365   2.405   2.286   2.337   2.452   2.541   2.426   2.342   2.317   2.283   2.390   2.520   2.417   2.534   2.483   2.358   2.462   2.465   2.424   2.373   2.452   2.207   2.262   2.392   2.641   2.699   2.632   2.583
   283.86    2.149   2.294   2.345   2.331   2.389   2.442   2.473   2.530   2.585   2.433   2.368   2.403   2.560   2.365   2.547   2.271   2.257   2.353   2.349   2.546   2.743   2.552   2.599   2.568   2.581   2.590   2.637   2.491   2.470   2.337   2.296   2.441   2.580   2.668   2.534   2.358
   275.29    2.181   2.251   2.466   2.580   2.505   2.553   2.433   2.437   2.537   2.441   2.328   2.397   2.440   2.539   2.475   2.284   2.249   2.391   2.440   2.493   2.599   2.626   2.456   2.558   2.726   2.688   2.784   2.601   2.613   2.680   2.475   2.636   2.520   2.512   2.568   2.405
   266.71    2.233   2.386   2.357   2.417   2.375   2.442   2.569   2.470   2.354   2.370   2.369   2.497   2.326   2.286   2.349   2.284   2.263   2.435   2.485   2.499   2.497   2.666   2.632   2.718   2.879   2.830   2.780   2.784   2.748   2.689   2.708   2.526   2.498   2.563   2.538   2.487
   258.14    2.326   2.334   2.391   2.382   2.388   2.355   2.320   2.372   2.422   2.385   2.404   2.398   2.273   2.211   2.283   2.371   2.386   2.504   2.432   2.691   2.779   2.703   2.793   2.913   2.824   2.873   2.839   2.799   2.840   2.901   2.643   2.646   2.593   2.535   2.733   2.694
   249.57    2.226   2.399   2.412   2.244   2.222   2.201   2.341   2.222   2.182   2.333   2.373   2.453   2.254   2.248   2.429   2.526   2.507   2.564   2.588   2.612   2.859   2.945   2.928   2.997   3.009   2.909   2.857   2.839   2.877   2.775   2.848   2.719   2.870   2.609   2.684   2.521
   241.00    2.212   2.428   2.392   2.082   2.089   2.120   2.258   2.183   2.175   2.491   2.429   2.377   2.375   2.445   2.585   2.457   2.597   2.649   2.650   2.819   2.961   3.089   3.083   2.941   3.058   2.950   2.853   3.047   3.083   2.780   2.819   2.805   2.785   2.776   2.643   2.487
   232.43    2.209   2.379   2.328   2.196   2.055   2.120   2.147   2.296   2.266   2.545   2.373   2.407   2.398   2.441   2.374   2.372   2.518   2.708   2.707   2.883   3.046   3.183   3.021   3.122   3.122   3.034   3.077   3.047   2.857   2.894   2.784   2.664   2.645   2.653   2.681   2.751
   223.86    2.252   2.512   2.403   2.367   2.248   2.067   2.037   2.174   2.466   2.510   2.332   2.370   2.467   2.420   2.376   2.453   2.466   2.765   2.798   2.686   2.963   2.916   2.887   2.924   3.007   3.110   3.074   3.063   2.982   2.836   2.669   2.624   2.526   2.575   2.628   2.444
   215.29    2.396   2.428   2.389   2.118   2.191   2.191   2.399   2.267   2.452   2.560   2.524   2.574   2.514   2.395   2.446   2.319   2.549   2.688   2.778   2.793   2.742   2.861   2.758   3.018   2.933   3.038   3.036   2.881   2.939   2.624   2.491   2.493   2.543   2.497   2.504   2.375
   206.71    2.274   2.376   2.330   2.209   2.188   2.260   2.339   2.298   2.423   2.481   2.495   2.529   2.583   2.474   2.491   2.341   2.456   2.426   2.628   2.651   2.713   2.737   2.747   2.913   2.886   2.868   2.920   2.832   2.757   2.497   2.590   2.535   2.370   2.231   2.393   2.542
   198.14    2.221   2.266   2.199   2.193   2.251   2.230   2.381   2.463   2.421   2.382   2.459   2.479   2.330   2.399   2.502   2.346   2.283   2.541   2.640   2.566   2.593   2.635   2.688   2.931   2.906   3.067   2.986   2.845   2.627   2.566   2.513   2.565   2.317   2.320   2.430   2.391
   189.57    2.259   2.323   2.254   2.369   2.281   2.271   2.390   2.657   2.610   2.413   2.479   2.511   2.502   2.453   2.475   2.404   2.477   2.502   2.502   2.590   2.756   2.773   2.645   2.830   2.758   2.865   2.790   2.635   2.607   2.575   2.630   2.488   2.444   2.300   2.259   2.455
   181.00    2.400   2.361   2.330   2.294   2.159   2.292   2.325   2.538   2.572   2.608   2.530   2.580   2.476   2.444   2.544   2.445   2.409   2.579   2.733   2.904   2.970   2.744   2.932   2.998   2.845   2.849   2.769   2.579   2.547   2.677   2.579   2.507   2.604   2.566   2.433   2.453
   172.43    2.565   2.603   2.489   2.361   2.157   2.269   2.410   2.676   2.533   2.577   2.576   2.630   2.606   2.585   2.556   2.427   2.451   2.614   2.763   2.789   2.960   2.984   3.015   3.037   3.089   2.981   2.823   2.637   2.636   2.561   2.531   2.468   2.477   2.452   2.394   2.395
   163.86    2.649   2.628   2.663   2.670   2.417   2.357   2.538   2.725   2.602   2.704   2.509   2.531   2.593   2.634   2.479   2.521   2.474   2.590   2.601   2.734   2.779   2.851   3.070   3.021   3.089   3.022   2.754   2.650   2.519   2.676   2.704   2.604   2.483   2.506   2.499   2.350
   155.29    2.613   2.801   2.745   2.435   2.634   2.424   2.467   2.722   2.716   2.669   2.779   2.436   2.462   2.424   2.493   2.495   2.538   2.619   2.625   2.482   2.697   2.801   2.833   2.985   2.941   2.849   2.885   2.712   2.704   2.565   2.688   2.489   2.502   2.447   2.403   2.464
   146.71    2.848   2.919   2.694   2.722   2.765   2.625   2.643   2.674   2.614   2.647   2.549   2.397   2.217   2.318   2.387   2.382   2.403   2.489   2.570   2.645   2.745   2.674   2.720   2.712   2.761   2.750   2.842   2.818   2.543   2.543   2.501   2.374   2.432   2.503   2.349   2.487
   138.14    2.654   2.930   2.792   2.855   2.738   2.615   2.656   2.607   2.609   2.518   2.315   2.234   2.163   2.088   2.280   2.417   2.355   2.478   2.533   2.582   2.644   2.666   2.801   2.701   2.726   2.866   2.893   2.831   2.544   2.543   2.509   2.526   2.509   2.588   2.480   2.392
   129.57    2.757   2.785   2.743   2.721   2.769   2.549   2.450   2.571   2.620   2.503   2.214   2.175   2.136   2.087   2.266   2.422   2.435   2.617   2.527   2.686   2.637   2.813   2.841   2.899   2.838   2.878   2.852   2.827   2.632   2.541   2.527   2.520   2.489   2.503   2.373   2.279
   121.00    2.696   2.707   2.693   2.642   2.676   2.462   2.538   2.488   2.617   2.535   2.268   2.225   2.200   2.169   2.256   2.340   2.441   2.406   2.610   2.730   2.726   2.659   2.781   2.790   2.985   2.846   2.769   2.669   2.610   2.546   2.737   2.706   2.813   2.548   2.519   2.546
   112.43    2.485   2.534   2.491   2.563   2.521   2.650   2.521   2.677   2.678   2.370   2.260   2.176   2.242   2.270   2.349   2.305   2.477   2.456   2.664   2.767   2.797   2.639   2.713   2.868   2.886   2.983   2.982   2.917   2.606   2.511   2.592   2.624   2.728   2.623   2.477   2.522
   103.86    2.456   2.518   2.715   2.544   2.550   2.647   2.602   2.689   2.587   2.395   2.285   2.310   2.261   2.281   2.265   2.310   2.482   2.674   2.667   2.695   2.963   2.817   2.945   2.978   2.821   2.973   3.132   3.060   2.748   2.775   2.590   2.517   2.574   2.619   2.710   2.769
    95.29    2.456   2.589   2.645   2.604   2.600   2.613   2.515   2.515   2.450   2.372   2.459   2.470   2.254   2.287   2.352   2.399   2.447   2.408   2.638   2.699   2.925   2.872   2.909   2.743   3.020   3.003   2.935   2.884   2.811   2.690   2.503   2.498   2.563   2.612   2.637   2.650
    86.71    2.265   2.528   2.386   2.502   2.628   2.499   2.501   2.503   2.357   2.503   2.442   2.463   2.410   2.347   2.493   2.428   2.429   2.498   2.427   2.625   2.790   2.794   2.791   2.732   2.873   2.871   2.773   2.675   2.670   2.675   2.479   2.600   2.487   2.773   2.682   2.677
    78.14    2.291   2.398   2.326   2.339   2.372   2.436   2.489   2.484   2.410   2.602   2.476   2.531   2.244   2.323   2.282   2.230   2.184   2.082   2.368   2.488   2.741   2.691   2.796   2.699   2.733   2.668   2.719   2.706   2.884   2.755   2.596   2.534   2.676   2.733   2.578   2.485
    69.57    2.257   2.188   2.182   2.309   2.456   2.395   2.446   2.431   2.479   2.629   2.394   2.363   2.356   2.246   2.195   2.219   2.085   2.150   2.256   2.542   2.663   2.603   2.636   2.727   2.646   2.627   2.662   2.717   2.767   2.679   2.582   2.313   2.475   2.590   2.636   2.545
    61.00    2.271   2.274   2.191   2.423   2.244   2.347   2.549   2.408   2.465   2.523   2.546   2.438   2.372   2.205   2.270   2.260   2.196   2.121   2.161   2.458   2.555   2.580   2.557   2.742   2.536   2.554   2.501   2.550   2.688   2.686   2.661   2.390   2.486   2.515   2.587   2.554
    52.43    2.299   2.184   2.206   2.267   2.269   2.226   2.366   2.365   2.483   2.458   2.490   2.427   2.308   2.353   2.218   2.176   2.342   2.223   2.265   2.444   2.438   2.517   2.608   2.622   2.563   2.556   2.528   2.634   2.630   2.534   2.614   2.500   2.382   2.493   2.484   2.471
    43.86    2.234   2.279   2.216   2.053   2.331   2.202   2.231   2.305   2.328   2.385   2.520   2.480   2.509   2.328   2.372   2.415   2.244   2.376   2.271   2.333   2.406   2.660   2.579   2.617   2.505   2.364   2.312   2.493   2.582   2.613   2.593   2.387   2.421   2.524   2.476   2.339
    35.29    2.341   2.194   2.121   2.183   2.288   2.434   2.421   2.431   2.241   2.224   2.315   2.383   2.469   2.510   2.574   2.625   2.461   2.569   2.499   2.303   2.459   2.538   2.360   2.397   2.470   2.442   2.345   2.415   2.543   2.573   2.631   2.455   2.435   2.510   2.302   2.450
    26.71    2.285   2.084   2.227   2.291   2.254   2.409   2.541   2.477   2.292   2.344   2.206   2.373   2.478   2.562   2.462   2.688   2.717   2.620   2.589   2.440   2.387   2.319   2.425   2.405   2.300   2.323   2.399   2.563   2.497   2.552   2.547   2.529   2.494   2.459   2.568   2.422
    18.14    2.159   2.084   2.231   2.422   2.561   2.620   2.581   2.456   2.396   2.365   2.290   2.370   2.523   2.465   2.599   2.659   2.649   2.754   2.476   2.324   2.304   2.220   2.468   2.507   2.387   2.299   2.298   2.383   2.620   2.502   2.488   2.500   2.346   2.418   2.307   2.396
     9.57    2.226   2.380   2.544   2.499   2.517   2.606   2.628   2.626   2.441   2.354   2.317   2.458   2.516   2.538   2.583   2.675   2.670   2.569   2.582   2.389   2.330   2.308   2.440   2.415   2.414   2.447   2.456   2.578   2.543   2.482   2.576   2.556   2.489   2.537   2.551   2.655
     1.00    2.393   2.401   2.479   2.447   2.447   2.618   2.645   2.653   2.715   2.413   2.385   2.552   2.513   2.478   2.717   2.512   2.529   2.459   2.367   2.345   2.305   2.374   2.421   2.504   2.492   2.368   2.468   2.453   2.586   2.516   2.642   2.616   2.501   2.630   2.543   2.626

   Height   Standard deviation at grid points for the v component:
   301.00    2.408   2.408   2.408   2.408   2.408   2.408   2.408   2.408   2.408   2.408   2.408   2.408   2.408   2.408   2.408   2.408   2.408   2.408   2.408   2.408   2.408   2.408   2.408   2.408   2.408   2.408   2.408   2.408   2.408   2.408   2.408   2.408   2.408   2.408   2.408   2.408
   292.43    2.408   2.408   2.408   2.408   2.408   2.408   2.408   2.408   2.408   2.408   2.408   2.408   2.408   2.408   2.408   2.408   2.408   2.408   2.408   2.408   2.408   2.408   2.408   2.408   2.408   2.408   2.408   2.408   2.408   2.408   2.408   2.408   2.408   2.408   2.408   2.408
   283.86    2.408   2.408   2.408   2.408   2.408   2.408   2.408   2.408   2.408   2.408   2.408   2.408   2.408   2.408   2.408   2.408   2.408   2.408   2.408   2.408   2.408   2.408   2.408   2.408   2.408   2.408   2.408   2.408   2.408   2.408   2.408   2.408   2.408   2.408   2.408   2.408
   275.29    2.408   2.408   2.408   2.408   2.408   2.408   2.408   2.408   2.408   2.408   2.408   2.408   2.408   2.408   2.408   2.408   2.408   2.408   2.408   2.408   2.408   2.408   2.408   2.408   2.408   2.408   2.408   2.408   2.408   2.408   2.408   2.408   2.408   2.408   2.408   2.408
   266.71    2.408   2.408   2.408   2.408   2.408   2.408   2.408   2.408   2.408   2.408   2.408   2.408   2.408   2.408   2.408   2.408   2.408   2.408   2.408   2.408   2.408   2.408   2.408   2.408   2.408   2.408   2.408   2.408   2.408   2.408   2.408   2.408   2.408   2.408   2.408   2.408
   258.14    2.408   2.408   2.408   2.408   2.408   2.408   2.408   2.408   2.408   2.408   2.408   2.408   2.408   2.408   2.408   2.408   2.408   2.408   2.408   2.408   2.408   2.408   2.408   2.408   2.408   2.408   2.408   2.408   2.408   2.408   2.408   2.408   2.408   2.408   2.408   2.408
   249.57    2.408   2.408   2.408   2.408   2.408   2.408   2.408   2.408   2.408   2.408   2.408   2.408   2.408   2.408   2.408   2.408   2.408   2.408   2.408   2.408   2.408   2.408   2.408   2.408   2.408   2.408   2.408   2.408   2.408   2.408   2.408   2.408   2.408   2.408   2.408   2.408
   241.00    2.408   2.408   2.408   2.408   2.408   2.408   2.408   2.408   2.408   2.408   2.408   2.408   2.408   2.408   2.408   2.408   2.408   2.408   2.408   2.408   2.408   2.408   2.408   2.408   2.408   2.408   2.408   2.408   2.408   2.408   2.408   2.408   2.408   2.408   2.408   2.408
   232.43    2.408   2.408   2.408   2.408   2.408   2.408   2.408   2.408   2.408   2.408   2.408   2.408   2.408   2.408   2.408   2.408   2.408   2.408   2.408   2.408   2.408   2.408   2.408   2.408   2.408   2.408   2.408   2.408   2.408   2.408   2.408   2.408   2.408   2.408   2.408   2.408
   223.86    2.408   2.408   2.408   2.408   2.408   2.408   2.408   2.408   2.408   2.408   2.408   2.408   2.408   2.408   2.408   2.408   2.408   2.408   2.408   2.408   2.408   2.408   2.408   2.408   2.408   2.408   2.408   2.408   2.408   2.408   2.408   2.408   2.408   2.408   2.408   2.408
   215.29    2.408   2.408   2.408   2.408   2.408   2.408   2.408   2.408   2.408   2.408   2.408   2.408   2.408   2.408   2.408   2.408   2.408   2.408   2.408   2.408   2.408   2.408   2.408   2.408   2.408   2.408   2.408   2.408   2.408   2.408   2.408   2.408   2.408   2.408   2.408   2.408
   206.71    2.408   2.408   2.408   2.408   2.408   2.408   2.408   2.408   2.408   2.408   2.408   2.408   2.408   2.408   2.408   2.408   2.408   2.408   2.408   2.408   2.408   2.408   2.408   2.408   2.408   2.408   2.408   2.408   2.408   2.408   2.408   2.408   2.408   2.408   2.408   2.408
   198.14    2.408   2.408   2.408   2.408   2.408   2.408   2.408   2.408   2.408   2.408   2.408   2.408   2.408   2.408   2.408   2.408   2.408   2.408   2.408   2.408   2.408   2.408   2.408   2.408   2.408   2.408   2.408   2.408   2.408   2.408   2.408   2.408   2.408   2.408   2.408   2.408
   189.57    2.408   2.408   2.408   2.408   2.408   2.408   2.408   2.408   2.408   2.408   2.408   2.408   2.408   2.408   2.408   2.408   2.408   2.408   2.408   2.408   2.408   2.408   2.408   2.408   2.408   2.408   2.408   2.408   2.408   2.408   2.408   2.408   2.408   2.408   2.408   2.408
   181.00    2.408   2.408   2.408   2.408   2.408   2.408   2.408   2.408   2.408   2.408   2.408   2.408   2.408   2.408   2.408   2.408   2.408   2.408   2.408   2.408   2.408   2.408   2.408   2.408   2.408   2.408   2.408   2.408   2.408   2.408   2.408   2.408   2.408   2.408   2.408   2.408
   172.43    2.408   2.408   2.408   2.408   2.408   2.408   2.408   2.408   2.408   2.408   2.408   2.408   2.408   2.408   2.408   2.408   2.408   2.408   2.408   2.408   2.408   2.408   2.408   2.408   2.408   2.408   2.408   2.408   2.408   2.408   2.408   2.408   2.408   2.408   2.408   2.408
   163.86    2.408   2.408   2.408   2.408   2.408   2.408   2.408   2.408   2.408   2.408   2.408   2.408   2.408   2.408   2.408   2.408   2.408   2.408   2.408   2.408   2.408   2.408   2.408   2.408   2.408   2.408   2.408   2.408   2.408   2.408   2.408   2.408   2.408   2.408   2.408   2.408
   155.29    2.408   2.408   2.408   2.408   2.408   2.408   2.408   2.408   2.408   2.408   2.408   2.408   2.408   2.408   2.408   2.408   2.408   2.408   2.408   2.408   2.408   2.408   2.408   2.408   2.408   2.408   2.408   2.408   2.408   2.408   2.408   2.408   2.408   2.408   2.408   2.408
   146.71    2.408   2.408   2.408   2.408   2.408   2.408   2.408   2.408   2.408   2.408   2.408   2.408   2.408   2.408   2.408   2.408   2.408   2.408   2.408   2.408   2.408   2.408   2.408   2.408   2.408   2.408   2.408   2.408   2.408   2.408   2.408   2.408   2.408   2.408   2.408   2.408
   138.14    2.408   2.408   2.408   2.408   2.408   2.408   2.408   2.408   2.408   2.408   2.408   2.408   2.408   2.408   2.408   2.408   2.408   2.408   2.408   2.408   2.408   2.408   2.408   2.408   2.408   2.408   2.408   2.408   2.408   2.408   2.408   2.408   2.408   2.408   2.408   2.408
   129.57    2.408   2.408   2.408   2.408   2.408   2.408   2.408   2.408   2.408   2.408   2.408   2.408   2.408   2.408   2.408   2.408   2.408   2.408   2.408   2.408   2.408   2.408   2.408   2.408   2.408   2.408   2.408   2.408   2.408   2.408   2.408   2.408   2.408   2.408   2.408   2.408
   121.00    2.408   2.408   2.408   2.408   2.408   2.408   2.408   2.408   2.408   2.408   2.408   2.408   2.408   2.408   2.408   2.408   2.408   2.408   2.408   2.408   2.408   2.408   2.408   2.408   2.408   2.408   2.408   2.408   2.408   2.408   2.408   2.408   2.408   2.408   2.408   2.408
   112.43    2.408   2.408   2.408   2.408   2.408   2.408   2.408   2.408   2.408   2.408   2.408   2.408   2.408   2.408   2.408   2.408   2.408   2.408   2.408   2.408   2.408   2.408   2.408   2.408   2.408   2.408   2.408   2.408   2.408   2.408   2.408   2.408   2.408   2.408   2.408   2.408
   103.86    2.408   2.408   2.408   2.408   2.408   2.408   2.408   2.408   2.408   2.408   2.408   2.408   2.408   2.408   2.408   2.408   2.408   2.408   2.408   2.408   2.408   2.408   2.408   2.408   2.408   2.408   2.408   2.408   2.408   2.408   2.408   2.408   2.408   2.408   2.408   2.408
    95.29    2.408   2.408   2.408   2.408   2.408   2.408   2.408   2.408   2.408   2.408   2.408   2.408   2.408   2.408   2.408   2.408   2.408   2.408   2.408   2.408   2.408   2.408   2.408   2.408   2.408   2.408   2.408   2.408   2.408   2.408   2.408   2.408   2.408   2.408   2.408   2.408
    86.71    2.408   2.408   2.408   2.408   2.408   2.408   2.408   2.408   2.408   2.408   2.408   2.408   2.408   2.408   2.408   2.408   2.408   2.408   2.408   2.408   2.408   2.408   2.408   2.408   2.408   2.408   2.408   2.408   2.408   2.408   2.408   2.408   2.408   2.408   2.408   2.408
    78.14    2.408   2.408   2.408   2.408   2.408   2.408   2.408   2.408   2.408   2.408   2.408   2.408   2.408   2.408   2.408   2.408   2.408   2.408   2.408   2.408   2.408   2.408   2.408   2.408   2.408   2.408   2.408   2.408   2.408   2.408   2.408   2.408   2.408   2.408   2.408   2.408
    69.57    2.408   2.408   2.408   2.408   2.408   2.408   2.408   2.408   2.408   2.408   2.408   2.408   2.408   2.408   2.408   2.408   2.408   2.408   2.408   2.408   2.408   2.408   2.408   2.408   2.408   2.408   2.408   2.408   2.408   2.408   2.408   2.408   2.408   2.408   2.408   2.408
    61.00    2.408   2.408   2.408   2.408   2.408   2.408   2.408   2.408   2.408   2.408   2.408   2.408   2.408   2.408   2.408   2.408   2.408   2.408   2.408   2.408   2.408   2.408   2.408   2.408   2.408   2.408   2.408   2.408   2.408   2.408   2.408   2.408   2.408   2.408   2.408   2.408
    52.43    2.408   2.408   2.408   2.408   2.408   2.408   2.408   2.408   2.408   2.408   2.408   2.408   2.408   2.408   2.408   2.408   2.408   2.408   2.408   2.408   2.408   2.408   2.408   2.408   2.408   2.408   2.408   2.408   2.408   2.408   2.408   2.408   2.408   2.408   2.408   2.408
    43.86    2.408   2.408   2.408   2.408   2.408   2.408   2.408   2.408   2.408   2.408   2.408   2.408   2.408   2.408   2.408   2.408   2.408   2.408   2.408   2.408   2.408   2.408   2.408   2.408   2.408   2.408   2.408   2.408   2.408   2.408   2.408   2.408   2.408   2.408   2.408   2.408
    35.29    2.408   2.408   2.408   2.408   2.408   2.408   2.408   2.408   2.408   2.408   2.408   2.408   2.408   2.408   2.408   2.408   2.408   2.408   2.408   2.408   2.408   2.408   2.408   2.408   2.408   2.408   2.408   2.408   2.408   2.408   2.408   2.408   2.408   2.408   2.408   2.408
    26.71    2.408   2.408   2.408   2.408   2.408   2.408   2.408   2.408   2.408   2.408   2.408   2.408   2.408   2.408   2.408   2.408   2.408   2.408   2.408   2.408   2.408   2.408   2.408   2.408   2.408   2.408   2.408   2.408   2.408   2.408   2.408   2.408   2.408   2.408   2.408   2.408
    18.14    2.408   2.408   2.408   2.408   2.408   2.408   2.408   2.408   2.408   2.408   2.408   2.408   2.408   2.408   2.408   2.408   2.408   2.408   2.408   2.408   2.408   2.408   2.408   2.408   2.408   2.408   2.408   2.408   2.408   2.408   2.408   2.408   2.408   2.408   2.408   2.408
     9.57    2.408   2.408   2.408   2.408   2.408   2.408   2.408   2.408   2.408   2.408   2.408   2.408   2.408   2.408   2.408   2.408   2.408   2.408   2.408   2.408   2.408   2.408   2.408   2.408   2.408   2.408   2.408   2.408   2.408   2.408   2.408   2.408   2.408   2.408   2.408   2.408
     1.00    2.408   2.408   2.408   2.408   2.408   2.408   2.408   2.408   2.408   2.408   2.408   2.408   2.408   2.408   2.408   2.408   2.408   2.408   2.408   2.408   2.408   2.408   2.408   2.408   2.408   2.408   2.408   2.408   2.408   2.408   2.408   2.408   2.408   2.408   2.408   2.408

   Height   Standard deviation at grid points for the w component:
   301.00    2.408   2.408   2.408   2.408   2.408   2.408   2.408   2.408   2.408   2.408   2.408   2.408   2.408   2.408   2.408   2.408   2.408   2.408   2.408   2.408   2.408   2.408   2.408   2.408   2.408   2.408   2.408   2.408   2.408   2.408   2.408   2.408   2.408   2.408   2.408   2.408
   292.43    2.408   2.408   2.408   2.408   2.408   2.408   2.408   2.408   2.408   2.408   2.408   2.408   2.408   2.408   2.408   2.408   2.408   2.408   2.408   2.408   2.408   2.408   2.408   2.408   2.408   2.408   2.408   2.408   2.408   2.408   2.408   2.408   2.408   2.408   2.408   2.408
   283.86    2.408   2.408   2.408   2.408   2.408   2.408   2.408   2.408   2.408   2.408   2.408   2.408   2.408   2.408   2.408   2.408   2.408   2.408   2.408   2.408   2.408   2.408   2.408   2.408   2.408   2.408   2.408   2.408   2.408   2.408   2.408   2.408   2.408   2.408   2.408   2.408
   275.29    2.408   2.408   2.408   2.408   2.408   2.408   2.408   2.408   2.408   2.408   2.408   2.408   2.408   2.408   2.408   2.408   2.408   2.408   2.408   2.408   2.408   2.408   2.408   2.408   2.408   2.408   2.408   2.408   2.408   2.408   2.408   2.408   2.408   2.408   2.408   2.408
   266.71    2.408   2.408   2.408   2.408   2.408   2.408   2.408   2.408   2.408   2.408   2.408   2.408   2.408   2.408   2.408   2.408   2.408   2.408   2.408   2.408   2.408   2.408   2.408   2.408   2.408   2.408   2.408   2.408   2.408   2.408   2.408   2.408   2.408   2.408   2.408   2.408
   258.14    2.408   2.408   2.408   2.408   2.408   2.408   2.408   2.408   2.408   2.408   2.408   2.408   2.408   2.408   2.408   2.408   2.408   2.408   2.408   2.408   2.408   2.408   2.408   2.408   2.408   2.408   2.408   2.408   2.408   2.408   2.408   2.408   2.408   2.408   2.408   2.408
   249.57    2.408   2.408   2.408   2.408   2.408   2.408   2.408   2.408   2.408   2.408   2.408   2.408   2.408   2.408   2.408   2.408   2.408   2.408   2.408   2.408   2.408   2.408   2.408   2.408   2.408   2.408   2.408   2.408   2.408   2.408   2.408   2.408   2.408   2.408   2.408   2.408
   241.00    2.408   2.408   2.408   2.408   2.408   2.408   2.408   2.408   2.408   2.408   2.408   2.408   2.408   2.408   2.408   2.408   2.408   2.408   2.408   2.408   2.408   2.408   2.408   2.408   2.408   2.408   2.408   2.408   2.408   2.408   2.408   2.408   2.408   2.408   2.408   2.408
   232.43    2.408   2.408   2.408   2.408   2.408   2.408   2.408   2.408   2.408   2.408   2.408   2.408   2.408   2.408   2.408   2.408   2.408   2.408   2.408   2.408   2.408   2.408   2.408   2.408   2.408   2.408   2.408   2.408   2.408   2.408   2.408   2.408   2.408   2.408   2.408   2.408
   223.86    2.408   2.408   2.408   2.408   2.408   2.408   2.408   2.408   2.408   2.408   2.408   2.408   2.408   2.408   2.408   2.408   2.408   2.408   2.408   2.408   2.408   2.408   2.408   2.408   2.408   2.408   2.408   2.408   2.408   2.408   2.408   2.408   2.408   2.408   2.408   2.408
   215.29    2.408   2.408   2.408   2.408   2.408   2.408   2.408   2.408   2.408   2.408   2.408   2.408   2.408   2.408   2.408   2.408   2.408   2.408   2.408   2.408   2.408   2.408   2.408   2.408   2.408   2.408   2.408   2.408   2.408   2.408   2.408   2.408   2.408   2.408   2.408   2.408
   206.71    2.408   2.408   2.408   2.408   2.408   2.408   2.408   2.408   2.408   2.408   2.408   2.408   2.408   2.408   2.408   2.408   2.408   2.408   2.408   2.408   2.408   2.408   2.408   2.408   2.408   2.408   2.408   2.408   2.408   2.408   2.408   2.408   2.408   2.408   2.408   2.408
   198.14    2.408   2.408   2.408   2.408   2.408   2.408   2.408   2.408   2.408   2.408   2.408   2.408   2.408   2.408   2.408   2.408   2.408   2.408   2.408   2.408   2.408   2.408   2.408   2.408   2.408   2.408   2.408   2.408   2.408   2.408   2.408   2.408   2.408   2.408   2.408   2.408
   189.57    2.408   2.408   2.408   2.408   2.408   2.408   2.408   2.408   2.408   2.408   2.408   2.408   2.408   2.408   2.408   2.408   2.408   2.408   2.408   2.408   2.408   2.408   2.408   2.408   2.408   2.408   2.408   2.408   2.408   2.408   2.408   2.408   2.408   2.408   2.408   2.408
   181.00    2.408   2.408   2.408   2.408   2.408   2.408   2.408   2.408   2.408   2.408   2.408   2.408   2.408   2.408   2.408   2.408   2.408   2.408   2.408   2.408   2.408   2.408   2.408   2.408   2.408   2.408   2.408   2.408   2.408   2.408   2.408   2.408   2.408   2.408   2.408   2.408
   172.43    2.408   2.408   2.408   2.408   2.408   2.408   2.408   2.408   2.408   2.408   2.408   2.408   2.408   2.408   2.408   2.408   2.408   2.408   2.408   2.408   2.408   2.408   2.408   2.408   2.408   2.408   2.408   2.408   2.408   2.408   2.408   2.408   2.408   2.408   2.408   2.408
   163.86    2.408   2.408   2.408   2.408   2.408   2.408   2.408   2.408   2.408   2.408   2.408   2.408   2.408   2.408   2.408   2.408   2.408   2.408   2.408   2.408   2.408   2.408   2.408   2.408   2.408   2.408   2.408   2.408   2.408   2.408   2.408   2.408   2.408   2.408   2.408   2.408
   155.29    2.408   2.408   2.408   2.408   2.408   2.408   2.408   2.408   2.408   2.408   2.408   2.408   2.408   2.408   2.408   2.408   2.408   2.408   2.408   2.408   2.408   2.408   2.408   2.408   2.408   2.408   2.408   2.408   2.408   2.408   2.408   2.408   2.408   2.408   2.408   2.408
   146.71    2.408   2.408   2.408   2.408   2.408   2.408   2.408   2.408   2.408   2.408   2.408   2.408   2.408   2.408   2.408   2.408   2.408   2.408   2.408   2.408   2.408   2.408   2.408   2.408   2.408   2.408   2.408   2.408   2.408   2.408   2.408   2.408   2.408   2.408   2.408   2.408
   138.14    2.408   2.408   2.408   2.408   2.408   2.408   2.408   2.408   2.408   2.408   2.408   2.408   2.408   2.408   2.408   2.408   2.408   2.408   2.408   2.408   2.408   2.408   2.408   2.408   2.408   2.408   2.408   2.408   2.408   2.408   2.408   2.408   2.408   2.408   2.408   2.408
   129.57    2.408   2.408   2.408   2.408   2.408   2.408   2.408   2.408   2.408   2.408   2.408   2.408   2.408   2.408   2.408   2.408   2.408   2.408   2.408   2.408   2.408   2.408   2.408   2.408   2.408   2.408   2.408   2.408   2.408   2.408   2.408   2.408   2.408   2.408   2.408   2.408
   121.00    2.408   2.408   2.408   2.408   2.408   2.408   2.408   2.408   2.408   2.408   2.408   2.408   2.408   2.408   2.408   2.408   2.408   2.408   2.408   2.408   2.408   2.408   2.408   2.408   2.408   2.408   2.408   2.408   2.408   2.408   2.408   2.408   2.408   2.408   2.408   2.408
   112.43    2.408   2.408   2.408   2.408   2.408   2.408   2.408   2.408   2.408   2.408   2.408   2.408   2.408   2.408   2.408   2.408   2.408   2.408   2.408   2.408   2.408   2.408   2.408   2.408   2.408   2.408   2.408   2.408   2.408   2.408   2.408   2.408   2.408   2.408   2.408   2.408
   103.86    2.408   2.408   2.408   2.408   2.408   2.408   2.408   2.408   2.408   2.408   2.408   2.408   2.408   2.408   2.408   2.408   2.408   2.408   2.408   2.408   2.408   2.408   2.408   2.408   2.408   2.408   2.408   2.408   2.408   2.408   2.408   2.408   2.408   2.408   2.408   2.408
    95.29    2.408   2.408   2.408   2.408   2.408   2.408   2.408   2.408   2.408   2.408   2.408   2.408   2.408   2.408   2.408   2.408   2.408   2.408   2.408   2.408   2.408   2.408   2.408   2.408   2.408   2.408   2.408   2.408   2.408   2.408   2.408   2.408   2.408   2.408   2.408   2.408
    86.71    2.408   2.408   2.408   2.408   2.408   2.408   2.408   2.408   2.408   2.408   2.408   2.408   2.408   2.408   2.408   2.408   2.408   2.408   2.408   2.408   2.408   2.408   2.408   2.408   2.408   2.408   2.408   2.408   2.408   2.408   2.408   2.408   2.408   2.408   2.408   2.408
    78.14    2.408   2.408   2.408   2.408   2.408   2.408   2.408   2.408   2.408   2.408   2.408   2.408   2.408   2.408   2.408   2.408   2.408   2.408   2.408   2.408   2.408   2.408   2.408   2.408   2.408   2.408   2.408   2.408   2.408   2.408   2.408   2.408   2.408   2.408   2.408   2.408
    69.57    2.408   2.408   2.408   2.408   2.408   2.408   2.408   2.408   2.408   2.408   2.408   2.408   2.408   2.408   2.408   2.408   2.408   2.408   2.408   2.408   2.408   2.408   2.408   2.408   2.408   2.408   2.408   2.408   2.408   2.408   2.408   2.408   2.408   2.408   2.408   2.408
    61.00    2.408   2.408   2.408   2.408   2.408   2.408   2.408   2.408   2.408   2.408   2.408   2.408   2.408   2.408   2.408   2.408   2.408   2.408   2.408   2.408   2.408   2.408   2.408   2.408   2.408   2.408   2.408   2.408   2.408   2.408   2.408   2.408   2.408   2.408   2.408   2.408
    52.43    2.408   2.408   2.408   2.408   2.408   2.408   2.408   2.408   2.408   2.408   2.408   2.408   2.408   2.408   2.408   2.408   2.408   2.408   2.408   2.408   2.408   2.408   2.408   2.408   2.408   2.408   2.408   2.408   2.408   2.408   2.408   2.408   2.408   2.408   2.408   2.408
    43.86    2.408   2.408   2.408   2.408   2.408   2.408   2.408   2.408   2.408   2.408   2.408   2.408   2.408   2.408   2.408   2.408   2.408   2.408   2.408   2.408   2.408   2.408   2.408   2.408   2.408   2.408   2.408   2.408   2.408   2.408   2.408   2.408   2.408   2.408   2.408   2.408
    35.29    2.408   2.408   2.408   2.408   2.408   2.408   2.408   2.408   2.408   2.408   2.408   2.408   2.408   2.408   2.408   2.408   2.408   2.408   2.408   2.408   2.408   2.408   2.408   2.408   2.408   2.408   2.408   2.408   2.408   2.408   2.408   2.408   2.408   2.408   2.408   2.408
    26.71    2.408   2.408   2.408   2.408   2.408   2.408   2.408   2.408   2.408   2.408   2.408   2.408   2.408   2.408   2.408   2.408   2.408   2.408   2.408   2.408   2.408   2.408   2.408   2.408   2.408   2.408   2.408   2.408   2.408   2.408   2.408   2.408   2.408   2.408   2.408   2.408
    18.14    2.408   2.408   2.408   2.408   2.408   2.408   2.408   2.408   2.408   2.408   2.408   2.408   2.408   2.408   2.408   2.408   2.408   2.408   2.408   2.408   2.408   2.408   2.408   2.408   2.408   2.408   2.408   2.408   2.408   2.408   2.408   2.408   2.408   2.408   2.408   2.408
     9.57    2.408   2.408   2.408   2.408   2.408   2.408   2.408   2.408   2.408   2.408   2.408   2.408   2.408   2.408   2.408   2.408   2.408   2.408   2.408   2.408   2.408   2.408   2.408   2.408   2.408   2.408   2.408   2.408   2.408   2.408   2.408   2.408   2.408   2.408   2.408   2.408
     1.00    2.408   2.408   2.408   2.408   2.408   2.408   2.408   2.408   2.408   2.408   2.408   2.408   2.408   2.408   2.408   2.408   2.408   2.408   2.408   2.408   2.408   2.408   2.408   2.408   2.408   2.408   2.408   2.408   2.408   2.408   2.408   2.408   2.408   2.408   2.408   2.408

   Mean standard deviation across all grid points:
      u component:    2.528 m/s
      v component:    2.408 m/s
      w component:    2.408 m/s


U-component (X) statistics from the interpolated hub point:

   Mean =  12.9650 m/s
   TI   =  18.0780 %


Normalizing Parameters for Binary Data (approximate statistics):

   UBar  =  12.9658 m/s
   TI(u) =  20.1845 %
   TI(v) =  18.5704 %
   TI(w) =  18.5704 %

   Height Offset =   0.0000 m
   Grid Base     =   1.0000 m

Creating a PERIODIC output file.


Processing complete.  110.72 CPU seconds used.
