
This summary file was generated by TurbSim (v2.00.07a-bjj, 14-Jun-2016) on 03-Nov-2023 at 03:26:58.


Runtime Options:

      5401  Random seed #1
    RANLUX  Type of random number generator
         F  Output binary HH turbulence parameters?
         F  Output formatted turbulence parameters?
         F  Output AeroDyn HH files?
         F  Output AeroDyn FF files?
         T  Output BLADED FF files?
         F  Output tower data?
         F  Output formatted FF files?
         F  Output coherent turbulence time step file?
         T  Clockwise rotation when looking downwind?
 0 -  NONE  IEC turbulence models scaled to exact specified standard deviation


Turbine/Model Specifications:

        36  Vertical grid-point matrix dimension
        36  Horizontal grid-point matrix dimension
     0.100  Time step [seconds]
   660.000  Analysis time [seconds]
   660.000  Usable output time [seconds]
   151.000  Hub height [m]
   300.000  Grid height [m]
   300.000  Grid width [m]
     0.000  Vertical flow angle [degrees]
     0.000  Horizontal flow angle [degrees]


Meteorological Boundary Conditions:

    IECVKM  IEC von Karman spectral model
         1  IEC standard: IEC 61400-1 Ed. 3: 2005
         A  IEC turbulence characteristic
       NTM  IEC Normal Turbulence Model
       N/A  IEC Extreme Turbulence Model (ETM) "c" parameter [m/s]
       PL   Wind profile type
   153.000  Reference height [m]
    22.000  Reference wind speed [m/s]
       N/A  Jet height [m]
     0.200  Power law exponent
     0.030  Surface roughness length [m]


Non-IEC Meteorological Boundary Conditions:

       N/A  Site latitude [degrees]
       N/A  Gradient Richardson number
       N/A  Friction or shear velocity [m/s]
       N/A  Mixing layer depth [m]
       N/A  Mean hub u'w' Reynolds stress
       N/A  Mean hub u'v' Reynolds stress
       N/A  Mean hub v'w' Reynolds stress


Spatial Coherence Models:

       IEC  u-component coherence model
      NONE  v-component coherence model
      NONE  w-component coherence model
(   12.000, 0.353E-03)  u-component coherence parameters
                   N/A  v-component coherence parameters
                   N/A  w-component coherence parameters
       N/A  Coherence exponent


You have requested that the following file(s) be generated:

   G:\2023\OpenWECDV1.0.0_x64\BaseLIne\wind\WindL_V_22_seed_5401.wnd (AeroDyn/BLADED full-field wnd file)


Turbulence Simulation Scaling Parameter Summary:

   Turbulence model used                            =  IEC von Karman
   Turbulence characteristic                        =  A
   IEC turbulence type                              =  Normal Turbulence Model
   IEC standard                                     =  IEC 61400-1 Ed. 3: 2005
   Mean wind speed at hub height                    =   21.942 m/s
   Expected value of turbulence intensity at 15 m/s =   16.000%
   Characteristic value of standard deviation       =    3.529 m/s
   Turbulence scale                                 =   42.000 m
   Isotropic integral scale                         =  147.000 m
   Characteristic value of hub turbulence intensity =   16.083%
   Gradient Richardson number                       =    0.000

   Wind profile type                                =  Power law
   Power law exponent                               =    0.200
   Mean shear across rotor disk                     =    0.057 (m/s)/m
   Assumed rotor diameter                           =  300.000 m
   Surface roughness length                         =    0.030 m

   Nyquist frequency of turbulent wind field        =    5.000 Hz

   Number of time steps in the FFT                  =     6600
   Number of time steps output                      =     6600
   Number of points simulated                       =     1297


Mean Flow Angles:

   Vertical   =   0.0 degrees
   Horizontal =   0.0 degrees

Mean Wind Speed Profile:

   Height    Wind Speed   Horizontal Angle  Vertical Angle  U-comp (X)   V-comp (Y)   W-comp (Z)
     (m)        (m/s)         (degrees)       (degrees)       (m/s)        (m/s)        (m/s)   
   ------    ----------   ----------------  --------------  ----------   ----------   ----------
    301.0       25.19            0.00            0.00         25.19         0.00         0.00
    292.4       25.04            0.00            0.00         25.04         0.00         0.00
    283.9       24.89            0.00            0.00         24.89         0.00         0.00
    275.3       24.74            0.00            0.00         24.74         0.00         0.00
    266.7       24.59            0.00            0.00         24.59         0.00         0.00
    258.1       24.43            0.00            0.00         24.43         0.00         0.00
    249.6       24.26            0.00            0.00         24.26         0.00         0.00
    241.0       24.09            0.00            0.00         24.09         0.00         0.00
    232.4       23.92            0.00            0.00         23.92         0.00         0.00
    223.9       23.74            0.00            0.00         23.74         0.00         0.00
    215.3       23.56            0.00            0.00         23.56         0.00         0.00
    206.7       23.36            0.00            0.00         23.36         0.00         0.00
    198.1       23.17            0.00            0.00         23.17         0.00         0.00
    189.6       22.96            0.00            0.00         22.96         0.00         0.00
    181.0       22.75            0.00            0.00         22.75         0.00         0.00
    172.4       22.53            0.00            0.00         22.53         0.00         0.00
    163.9       22.30            0.00            0.00         22.30         0.00         0.00
    155.3       22.07            0.00            0.00         22.07         0.00         0.00
    151.0       21.94            0.00            0.00         21.94         0.00         0.00
    146.7       21.82            0.00            0.00         21.82         0.00         0.00
    138.1       21.56            0.00            0.00         21.56         0.00         0.00
    129.6       21.28            0.00            0.00         21.28         0.00         0.00
    121.0       20.99            0.00            0.00         20.99         0.00         0.00
    112.4       20.69            0.00            0.00         20.69         0.00         0.00
    103.9       20.36            0.00            0.00         20.36         0.00         0.00
     95.3       20.01            0.00            0.00         20.01         0.00         0.00
     86.7       19.64            0.00            0.00         19.64         0.00         0.00
     78.1       19.23            0.00            0.00         19.23         0.00         0.00
     69.6       18.79            0.00            0.00         18.79         0.00         0.00
     61.0       18.30            0.00            0.00         18.30         0.00         0.00
     52.4       17.76            0.00            0.00         17.76         0.00         0.00
     43.9       17.14            0.00            0.00         17.14         0.00         0.00
     35.3       16.41            0.00            0.00         16.41         0.00         0.00
     26.7       15.52            0.00            0.00         15.52         0.00         0.00
     18.1       14.36            0.00            0.00         14.36         0.00         0.00
      9.6       12.64            0.00            0.00         12.64         0.00         0.00
      1.0        8.04            0.00            0.00          8.04         0.00         0.00


Harvested Random Seeds after Generation of the Random Numbers:

    119307688 K 1
            0 K 2


Hub-Height Simulated Turbulence Statistical Summary:

   Type of Wind        Min (m/s)   Mean (m/s)    Max (m/s)  Sigma (m/s)       TI (%)
   ----------------    ---------   ----------    ---------  -----------       ------
   Longitudinal (u)         9.51        21.94        35.93        4.026       18.350
   Lateral (v)            -10.89         0.00        11.21        3.467       15.798
   Vertical (w)           -11.09        -0.00        11.48        3.467       15.798
   U component              9.51        21.94        35.93        4.026       18.350
   V component            -10.89         0.00        11.21        3.467       15.798
   W component            -11.09        -0.00        11.48        3.467       15.798
   Horizontal (U&V)         9.54        22.22        35.97        4.005       18.025
   Total                   10.02        22.49        36.17        3.971       17.654

                       Min Reynolds     Mean Reynolds    Max Reynolds    Correlation
   Product             Stress (m/s)^2   Stress (m/s)^2   Stress (m/s)^2  Coefficient
   ----------------    --------------   --------------   --------------  -----------
   u'w'                    -67.229             1.371            83.685         0.098
   u'v'                    -85.456            -0.738            74.498        -0.053
   v'w'                   -105.916            -0.661            56.571        -0.055


   Friction Velocity (Ustar)  =      1.171 m/s
   Maximum Instantaneous TKE  =    111.303 (m/s)^2
   Maximum Instantaneous CTKE =     58.036 (m/s)^2


Grid Point Variance Summary:

   Y-coord -150.00 -141.43 -132.86 -124.29 -115.71 -107.14  -98.57  -90.00  -81.43  -72.86  -64.29  -55.71  -47.14  -38.57  -30.00  -21.43  -12.86   -4.29    4.29   12.86   21.43   30.00   38.57   47.14   55.71   64.29   72.86   81.43   90.00   98.57  107.14  115.71  124.29  132.86  141.43  150.00

   Height   Standard deviation at grid points for the u component:
   301.00    3.520   3.729   3.728   3.643   3.434   3.349   3.312   3.328   3.502   3.652   3.606   3.647   3.717   3.578   3.540   3.539   3.602   3.713   3.748   3.747   3.662   3.824   3.923   3.948   3.917   3.732   3.727   3.555   3.580   3.721   3.697   3.674   3.493   3.730   3.959   4.101
   292.43    3.663   3.608   3.634   3.595   3.494   3.330   3.479   3.582   3.621   3.505   3.693   3.762   3.510   3.498   3.489   3.463   3.551   3.810   3.809   3.812   3.651   3.588   3.843   3.761   3.863   3.718   3.811   3.815   3.741   3.664   3.689   3.662   3.612   3.631   3.767   4.092
   283.86    3.600   3.438   3.521   3.540   3.523   3.526   3.439   3.565   3.602   3.714   3.627   3.743   3.742   3.603   3.493   3.456   3.523   3.686   3.825   3.823   3.887   3.782   3.735   3.883   3.959   3.882   3.792   3.711   3.631   3.689   3.779   3.699   3.647   3.677   3.755   4.057
   275.29    3.586   3.542   3.438   3.448   3.526   3.492   3.408   3.582   3.682   3.657   3.768   3.844   3.939   3.794   3.635   3.544   3.663   3.752   3.850   3.900   3.871   3.743   3.724   3.945   3.879   3.812   3.683   3.731   3.760   3.808   3.987   3.681   3.634   3.766   3.962   4.081
   266.71    3.646   3.644   3.501   3.436   3.498   3.459   3.468   3.620   3.572   3.567   3.622   3.879   3.844   3.721   3.643   3.678   3.686   3.714   3.763   3.919   3.865   3.725   3.851   3.895   3.827   3.638   3.702   3.719   3.814   3.918   3.786   3.908   3.799   3.833   4.079   4.129
   258.14    3.704   3.765   3.666   3.674   3.585   3.400   3.593   3.696   3.466   3.566   3.702   3.865   3.834   3.796   3.932   3.766   3.680   3.581   3.537   3.809   3.828   3.862   3.813   3.880   3.845   3.807   3.838   3.813   3.951   3.967   3.982   3.967   3.996   4.100   4.223   4.171
   249.57    3.750   3.913   3.743   3.665   3.774   3.711   3.733   3.632   3.580   3.637   3.820   3.827   3.960   3.852   3.840   3.802   3.767   3.670   3.510   3.592   3.695   3.745   3.794   3.873   3.970   3.813   4.091   3.962   3.803   3.796   3.877   3.948   3.951   4.104   4.086   4.011
   241.00    3.716   3.697   3.672   3.713   3.719   3.837   3.782   3.765   3.689   3.727   3.822   3.818   4.029   3.931   3.866   3.735   3.838   3.766   3.476   3.527   3.703   3.721   3.849   4.114   3.900   3.899   3.919   3.914   3.877   3.939   3.828   3.858   3.927   4.170   4.228   3.936
   232.43    3.652   3.558   3.539   3.652   3.836   3.725   3.791   3.776   3.669   3.689   3.695   3.898   3.993   3.853   3.837   3.748   3.761   3.665   3.566   3.564   3.595   3.665   3.883   4.011   3.941   3.808   3.915   3.978   3.808   3.999   3.933   3.710   3.946   4.063   3.990   3.905
   223.86    3.742   3.695   3.747   3.805   3.701   3.600   3.563   3.731   3.542   3.626   3.829   3.874   3.993   3.908   3.809   3.816   3.825   3.684   3.595   3.767   3.739   3.864   3.932   4.039   3.951   3.854   3.713   3.908   3.990   3.940   3.868   3.832   3.800   3.897   4.035   3.986
   215.29    3.616   3.860   3.835   3.840   3.711   3.589   3.564   3.770   3.758   3.828   3.928   3.919   3.944   3.887   3.915   3.868   4.088   3.914   3.959   3.948   3.952   3.986   3.916   4.111   4.108   3.792   3.623   3.794   4.044   4.004   3.923   3.710   3.774   3.889   4.120   4.142
   206.71    3.525   3.722   3.646   3.613   3.594   3.642   3.594   3.628   3.775   3.929   3.838   3.854   3.818   3.954   3.980   4.033   4.031   4.102   3.883   3.956   4.020   4.014   4.031   4.033   3.840   3.813   3.770   3.922   4.103   3.814   3.852   3.941   3.960   3.837   3.865   4.030
   198.14    3.352   3.481   3.593   3.396   3.371   3.471   3.531   3.705   3.813   3.902   3.781   3.825   3.808   3.977   4.137   3.999   4.002   3.927   3.973   3.853   3.734   3.808   3.887   3.963   4.003   3.830   3.792   3.931   4.042   3.883   4.028   3.903   3.888   3.958   4.003   3.909
   189.57    3.286   3.459   3.510   3.284   3.441   3.355   3.699   3.973   3.850   3.913   3.845   3.813   3.916   4.093   4.075   4.087   4.078   3.952   3.882   3.805   3.730   3.724   3.836   3.962   3.986   3.906   3.790   3.792   3.846   3.954   3.965   4.066   3.900   4.021   4.066   4.067
   181.00    3.498   3.424   3.383   3.247   3.263   3.419   3.442   3.751   3.873   3.913   3.915   3.923   4.019   4.015   3.970   4.012   4.078   3.905   3.814   3.708   3.810   3.846   4.017   3.983   3.895   3.938   3.807   3.709   3.761   3.936   3.935   4.066   4.022   3.973   3.942   4.109
   172.43    3.478   3.387   3.359   3.346   3.595   3.517   3.629   3.736   3.737   3.974   3.961   3.977   3.933   4.001   4.044   3.977   3.822   3.825   3.956   3.926   3.815   3.864   4.083   3.914   3.671   3.755   3.989   3.823   3.851   3.840   3.784   3.898   3.888   3.965   3.814   4.092
   163.86    3.413   3.519   3.454   3.544   3.500   3.443   3.679   3.886   3.845   3.967   3.689   3.790   3.740   3.937   3.966   3.946   3.775   3.897   3.924   3.993   4.087   3.950   4.093   3.893   3.865   3.816   3.749   3.904   3.914   4.001   3.781   3.862   3.844   3.947   3.965   4.003
   155.29    3.446   3.529   3.391   3.544   3.609   3.531   3.700   3.705   3.820   3.818   3.715   3.533   3.597   3.700   3.774   3.899   3.856   3.906   4.041   3.993   3.944   3.816   3.958   3.797   3.945   3.956   3.905   3.740   3.822   4.020   3.983   3.812   3.752   3.830   3.800   3.774
   146.71    3.377   3.534   3.733   3.623   3.682   3.673   3.541   3.719   3.749   3.793   3.694   3.530   3.418   3.686   3.714   3.794   3.794   3.840   4.007   3.830   3.585   3.891   3.930   3.981   3.906   3.806   3.761   3.777   3.813   3.588   3.805   3.621   3.713   3.738   3.587   3.636
   138.14    3.366   3.597   3.593   3.595   3.795   3.658   3.559   3.659   3.772   3.695   3.601   3.651   3.703   3.524   3.567   3.571   3.638   3.661   3.792   3.694   3.609   3.621   3.711   3.742   3.721   3.655   3.623   3.729   3.625   3.809   3.630   3.500   3.615   3.740   3.573   3.639
   129.57    3.378   3.441   3.514   3.570   3.698   3.569   3.576   3.653   3.803   3.626   3.721   3.719   3.585   3.526   3.395   3.314   3.285   3.461   3.390   3.590   3.632   3.451   3.597   3.688   3.644   3.694   3.655   3.786   3.507   3.560   3.454   3.740   3.619   3.633   3.447   3.522
   121.00    3.423   3.358   3.524   3.443   3.543   3.518   3.442   3.505   3.673   3.863   3.751   3.554   3.552   3.338   3.205   3.227   3.380   3.368   3.424   3.419   3.647   3.423   3.458   3.561   3.553   3.429   3.425   3.543   3.547   3.356   3.344   3.553   3.729   3.401   3.434   3.411
   112.43    3.374   3.490   3.633   3.573   3.507   3.466   3.521   3.459   3.704   3.818   3.825   3.582   3.351   3.462   3.295   3.307   3.432   3.572   3.671   3.346   3.309   3.386   3.369   3.342   3.536   3.523   3.497   3.426   3.342   3.169   3.243   3.380   3.528   3.403   3.455   3.291
   103.86    3.401   3.587   3.780   3.760   3.500   3.703   3.716   3.679   3.695   3.862   3.686   3.437   3.360   3.332   3.243   3.360   3.408   3.558   3.606   3.235   3.237   3.264   3.336   3.372   3.429   3.497   3.560   3.482   3.405   3.291   3.391   3.395   3.479   3.466   3.354   3.231
    95.29    3.586   3.852   3.809   3.640   3.703   3.905   3.844   3.596   3.760   3.693   3.734   3.478   3.219   3.297   3.259   3.318   3.605   3.537   3.521   3.296   3.231   3.305   3.376   3.365   3.461   3.434   3.607   3.443   3.381   3.482   3.417   3.398   3.381   3.220   3.381   3.251
    86.71    3.601   3.800   3.622   3.789   3.816   3.824   3.841   3.675   3.809   3.613   3.676   3.516   3.266   3.360   3.388   3.397   3.395   3.369   3.411   3.445   3.341   3.211   3.296   3.276   3.407   3.470   3.409   3.279   3.369   3.406   3.658   3.464   3.338   3.390   3.332   3.221
    78.14    3.559   3.585   3.735   3.601   3.812   3.657   3.717   3.521   3.650   3.617   3.677   3.602   3.622   3.456   3.442   3.479   3.203   3.261   3.219   3.281   3.294   3.215   3.372   3.383   3.403   3.275   3.408   3.239   3.179   3.451   3.713   3.748   3.530   3.502   3.403   3.421
    69.57    3.689   3.700   3.702   3.519   3.668   3.683   3.668   3.567   3.599   3.642   3.781   3.832   3.675   3.559   3.331   3.388   3.197   3.206   3.288   3.255   3.179   3.246   3.248   3.248   3.337   3.184   3.261   3.198   3.172   3.313   3.402   3.519   3.533   3.434   3.502   3.419
    61.00    3.796   3.871   3.816   3.718   3.504   3.453   3.684   3.643   3.714   3.645   3.665   3.805   3.766   3.531   3.453   3.376   3.260   3.064   3.021   3.087   3.140   3.429   3.284   3.215   3.228   3.270   3.080   3.284   3.149   3.159   3.290   3.342   3.524   3.681   3.726   3.553
    52.43    3.680   3.549   3.588   3.607   3.566   3.636   3.699   3.548   3.787   3.836   3.769   3.815   3.830   3.657   3.547   3.471   3.329   3.400   3.366   3.264   3.300   3.357   3.365   3.216   3.225   3.284   3.217   3.207   3.279   3.255   3.246   3.233   3.220   3.401   3.323   3.420
    43.86    3.559   3.533   3.462   3.549   3.569   3.628   3.534   3.614   3.664   3.793   3.571   3.763   3.850   3.617   3.533   3.399   3.546   3.469   3.363   3.533   3.638   3.634   3.515   3.447   3.315   3.340   3.372   3.478   3.409   3.192   3.151   3.032   3.088   3.281   3.136   3.280
    35.29    3.465   3.706   3.653   3.637   3.506   3.400   3.392   3.384   3.491   3.706   3.461   3.595   3.590   3.609   3.630   3.573   3.629   3.651   3.427   3.637   3.883   3.866   3.761   3.582   3.633   3.628   3.598   3.539   3.560   3.498   3.347   3.221   3.155   3.168   3.208   3.248
    26.71    3.616   3.625   3.596   3.676   3.533   3.460   3.328   3.245   3.347   3.428   3.363   3.306   3.350   3.547   3.651   3.638   3.658   3.789   3.745   3.734   4.105   3.938   3.728   3.773   3.809   3.739   3.673   3.592   3.607   3.384   3.201   3.330   3.146   3.225   3.152   3.088
    18.14    3.519   3.474   3.513   3.493   3.583   3.550   3.394   3.170   3.336   3.372   3.321   3.359   3.452   3.521   3.636   3.848   3.801   3.770   3.776   3.842   4.041   3.934   3.667   3.673   3.634   3.718   3.667   3.599   3.486   3.288   3.261   3.296   3.356   3.260   3.138   2.978
     9.57    3.610   3.507   3.468   3.669   3.651   3.683   3.609   3.463   3.425   3.420   3.265   3.495   3.742   3.644   3.613   3.619   3.678   3.642   3.528   3.827   3.653   3.726   3.674   3.668   3.818   3.759   3.596   3.620   3.529   3.267   3.200   3.278   3.283   3.195   3.055   2.995
     1.00    3.461   3.415   3.321   3.449   3.555   3.646   3.520   3.476   3.432   3.208   3.271   3.501   3.673   3.600   3.545   3.671   3.650   3.491   3.477   3.562   3.642   3.737   3.588   3.676   3.726   3.680   3.617   3.677   3.682   3.503   3.360   3.402   3.403   3.207   2.962   3.126

   Height   Standard deviation at grid points for the v component:
   301.00    3.467   3.467   3.467   3.467   3.467   3.467   3.467   3.467   3.467   3.467   3.467   3.467   3.467   3.467   3.467   3.467   3.467   3.467   3.467   3.467   3.467   3.467   3.467   3.467   3.467   3.467   3.467   3.467   3.467   3.467   3.467   3.467   3.467   3.467   3.467   3.467
   292.43    3.467   3.467   3.467   3.467   3.467   3.467   3.467   3.467   3.467   3.467   3.467   3.467   3.467   3.467   3.467   3.467   3.467   3.467   3.467   3.467   3.467   3.467   3.467   3.467   3.467   3.467   3.467   3.467   3.467   3.467   3.467   3.467   3.467   3.467   3.467   3.467
   283.86    3.467   3.467   3.467   3.467   3.467   3.467   3.467   3.467   3.467   3.467   3.467   3.467   3.467   3.467   3.467   3.467   3.467   3.467   3.467   3.467   3.467   3.467   3.467   3.467   3.467   3.467   3.467   3.467   3.467   3.467   3.467   3.467   3.467   3.467   3.467   3.467
   275.29    3.467   3.467   3.467   3.467   3.467   3.467   3.467   3.467   3.467   3.467   3.467   3.467   3.467   3.467   3.467   3.467   3.467   3.467   3.467   3.467   3.467   3.467   3.467   3.467   3.467   3.467   3.467   3.467   3.467   3.467   3.467   3.467   3.467   3.467   3.467   3.467
   266.71    3.467   3.467   3.467   3.467   3.467   3.467   3.467   3.467   3.467   3.467   3.467   3.467   3.467   3.467   3.467   3.467   3.467   3.467   3.467   3.467   3.467   3.467   3.467   3.467   3.467   3.467   3.467   3.467   3.467   3.467   3.467   3.467   3.467   3.467   3.467   3.467
   258.14    3.467   3.467   3.467   3.467   3.467   3.467   3.467   3.467   3.467   3.467   3.467   3.467   3.467   3.467   3.467   3.467   3.467   3.467   3.467   3.467   3.467   3.467   3.467   3.467   3.467   3.467   3.467   3.467   3.467   3.467   3.467   3.467   3.467   3.467   3.467   3.467
   249.57    3.467   3.467   3.467   3.467   3.467   3.467   3.467   3.467   3.467   3.467   3.467   3.467   3.467   3.467   3.467   3.467   3.467   3.467   3.467   3.467   3.467   3.467   3.467   3.467   3.467   3.467   3.467   3.467   3.467   3.467   3.467   3.467   3.467   3.467   3.467   3.467
   241.00    3.467   3.467   3.467   3.467   3.467   3.467   3.467   3.467   3.467   3.467   3.467   3.467   3.467   3.467   3.467   3.467   3.467   3.467   3.467   3.467   3.467   3.467   3.467   3.467   3.467   3.467   3.467   3.467   3.467   3.467   3.467   3.467   3.467   3.467   3.467   3.467
   232.43    3.467   3.467   3.467   3.467   3.467   3.467   3.467   3.467   3.467   3.467   3.467   3.467   3.467   3.467   3.467   3.467   3.467   3.467   3.467   3.467   3.467   3.467   3.467   3.467   3.467   3.467   3.467   3.467   3.467   3.467   3.467   3.467   3.467   3.467   3.467   3.467
   223.86    3.467   3.467   3.467   3.467   3.467   3.467   3.467   3.467   3.467   3.467   3.467   3.467   3.467   3.467   3.467   3.467   3.467   3.467   3.467   3.467   3.467   3.467   3.467   3.467   3.467   3.467   3.467   3.467   3.467   3.467   3.467   3.467   3.467   3.467   3.467   3.467
   215.29    3.467   3.467   3.467   3.467   3.467   3.467   3.467   3.467   3.467   3.467   3.467   3.467   3.467   3.467   3.467   3.467   3.467   3.467   3.467   3.467   3.467   3.467   3.467   3.467   3.467   3.467   3.467   3.467   3.467   3.467   3.467   3.467   3.467   3.467   3.467   3.467
   206.71    3.467   3.467   3.467   3.467   3.467   3.467   3.467   3.467   3.467   3.467   3.467   3.467   3.467   3.467   3.467   3.467   3.467   3.467   3.467   3.467   3.467   3.467   3.467   3.467   3.467   3.467   3.467   3.467   3.467   3.467   3.467   3.467   3.467   3.467   3.467   3.467
   198.14    3.467   3.467   3.467   3.467   3.467   3.467   3.467   3.467   3.467   3.467   3.467   3.467   3.467   3.467   3.467   3.467   3.467   3.467   3.467   3.467   3.467   3.467   3.467   3.467   3.467   3.467   3.467   3.467   3.467   3.467   3.467   3.467   3.467   3.467   3.467   3.467
   189.57    3.467   3.467   3.467   3.467   3.467   3.467   3.467   3.467   3.467   3.467   3.467   3.467   3.467   3.467   3.467   3.467   3.467   3.467   3.467   3.467   3.467   3.467   3.467   3.467   3.467   3.467   3.467   3.467   3.467   3.467   3.467   3.467   3.467   3.467   3.467   3.467
   181.00    3.467   3.467   3.467   3.467   3.467   3.467   3.467   3.467   3.467   3.467   3.467   3.467   3.467   3.467   3.467   3.467   3.467   3.467   3.467   3.467   3.467   3.467   3.467   3.467   3.467   3.467   3.467   3.467   3.467   3.467   3.467   3.467   3.467   3.467   3.467   3.467
   172.43    3.467   3.467   3.467   3.467   3.467   3.467   3.467   3.467   3.467   3.467   3.467   3.467   3.467   3.467   3.467   3.467   3.467   3.467   3.467   3.467   3.467   3.467   3.467   3.467   3.467   3.467   3.467   3.467   3.467   3.467   3.467   3.467   3.467   3.467   3.467   3.467
   163.86    3.467   3.467   3.467   3.467   3.467   3.467   3.467   3.467   3.467   3.467   3.467   3.467   3.467   3.467   3.467   3.467   3.467   3.467   3.467   3.467   3.467   3.467   3.467   3.467   3.467   3.467   3.467   3.467   3.467   3.467   3.467   3.467   3.467   3.467   3.467   3.467
   155.29    3.467   3.467   3.467   3.467   3.467   3.467   3.467   3.467   3.467   3.467   3.467   3.467   3.467   3.467   3.467   3.467   3.467   3.467   3.467   3.467   3.467   3.467   3.467   3.467   3.467   3.467   3.467   3.467   3.467   3.467   3.467   3.467   3.467   3.467   3.467   3.467
   146.71    3.467   3.467   3.467   3.467   3.467   3.467   3.467   3.467   3.467   3.467   3.467   3.467   3.467   3.467   3.467   3.467   3.467   3.467   3.467   3.467   3.467   3.467   3.467   3.467   3.467   3.467   3.467   3.467   3.467   3.467   3.467   3.467   3.467   3.467   3.467   3.467
   138.14    3.467   3.467   3.467   3.467   3.467   3.467   3.467   3.467   3.467   3.467   3.467   3.467   3.467   3.467   3.467   3.467   3.467   3.467   3.467   3.467   3.467   3.467   3.467   3.467   3.467   3.467   3.467   3.467   3.467   3.467   3.467   3.467   3.467   3.467   3.467   3.467
   129.57    3.467   3.467   3.467   3.467   3.467   3.467   3.467   3.467   3.467   3.467   3.467   3.467   3.467   3.467   3.467   3.467   3.467   3.467   3.467   3.467   3.467   3.467   3.467   3.467   3.467   3.467   3.467   3.467   3.467   3.467   3.467   3.467   3.467   3.467   3.467   3.467
   121.00    3.467   3.467   3.467   3.467   3.467   3.467   3.467   3.467   3.467   3.467   3.467   3.467   3.467   3.467   3.467   3.467   3.467   3.467   3.467   3.467   3.467   3.467   3.467   3.467   3.467   3.467   3.467   3.467   3.467   3.467   3.467   3.467   3.467   3.467   3.467   3.467
   112.43    3.467   3.467   3.467   3.467   3.467   3.467   3.467   3.467   3.467   3.467   3.467   3.467   3.467   3.467   3.467   3.467   3.467   3.467   3.467   3.467   3.467   3.467   3.467   3.467   3.467   3.467   3.467   3.467   3.467   3.467   3.467   3.467   3.467   3.467   3.467   3.467
   103.86    3.467   3.467   3.467   3.467   3.467   3.467   3.467   3.467   3.467   3.467   3.467   3.467   3.467   3.467   3.467   3.467   3.467   3.467   3.467   3.467   3.467   3.467   3.467   3.467   3.467   3.467   3.467   3.467   3.467   3.467   3.467   3.467   3.467   3.467   3.467   3.467
    95.29    3.467   3.467   3.467   3.467   3.467   3.467   3.467   3.467   3.467   3.467   3.467   3.467   3.467   3.467   3.467   3.467   3.467   3.467   3.467   3.467   3.467   3.467   3.467   3.467   3.467   3.467   3.467   3.467   3.467   3.467   3.467   3.467   3.467   3.467   3.467   3.467
    86.71    3.467   3.467   3.467   3.467   3.467   3.467   3.467   3.467   3.467   3.467   3.467   3.467   3.467   3.467   3.467   3.467   3.467   3.467   3.467   3.467   3.467   3.467   3.467   3.467   3.467   3.467   3.467   3.467   3.467   3.467   3.467   3.467   3.467   3.467   3.467   3.467
    78.14    3.467   3.467   3.467   3.467   3.467   3.467   3.467   3.467   3.467   3.467   3.467   3.467   3.467   3.467   3.467   3.467   3.467   3.467   3.467   3.467   3.467   3.467   3.467   3.467   3.467   3.467   3.467   3.467   3.467   3.467   3.467   3.467   3.467   3.467   3.467   3.467
    69.57    3.467   3.467   3.467   3.467   3.467   3.467   3.467   3.467   3.467   3.467   3.467   3.467   3.467   3.467   3.467   3.467   3.467   3.467   3.467   3.467   3.467   3.467   3.467   3.467   3.467   3.467   3.467   3.467   3.467   3.467   3.467   3.467   3.467   3.467   3.467   3.467
    61.00    3.467   3.467   3.467   3.467   3.467   3.467   3.467   3.467   3.467   3.467   3.467   3.467   3.467   3.467   3.467   3.467   3.467   3.467   3.467   3.467   3.467   3.467   3.467   3.467   3.467   3.467   3.467   3.467   3.467   3.467   3.467   3.467   3.467   3.467   3.467   3.467
    52.43    3.467   3.467   3.467   3.467   3.467   3.467   3.467   3.467   3.467   3.467   3.467   3.467   3.467   3.467   3.467   3.467   3.467   3.467   3.467   3.467   3.467   3.467   3.467   3.467   3.467   3.467   3.467   3.467   3.467   3.467   3.467   3.467   3.467   3.467   3.467   3.467
    43.86    3.467   3.467   3.467   3.467   3.467   3.467   3.467   3.467   3.467   3.467   3.467   3.467   3.467   3.467   3.467   3.467   3.467   3.467   3.467   3.467   3.467   3.467   3.467   3.467   3.467   3.467   3.467   3.467   3.467   3.467   3.467   3.467   3.467   3.467   3.467   3.467
    35.29    3.467   3.467   3.467   3.467   3.467   3.467   3.467   3.467   3.467   3.467   3.467   3.467   3.467   3.467   3.467   3.467   3.467   3.467   3.467   3.467   3.467   3.467   3.467   3.467   3.467   3.467   3.467   3.467   3.467   3.467   3.467   3.467   3.467   3.467   3.467   3.467
    26.71    3.467   3.467   3.467   3.467   3.467   3.467   3.467   3.467   3.467   3.467   3.467   3.467   3.467   3.467   3.467   3.467   3.467   3.467   3.467   3.467   3.467   3.467   3.467   3.467   3.467   3.467   3.467   3.467   3.467   3.467   3.467   3.467   3.467   3.467   3.467   3.467
    18.14    3.467   3.467   3.467   3.467   3.467   3.467   3.467   3.467   3.467   3.467   3.467   3.467   3.467   3.467   3.467   3.467   3.467   3.467   3.467   3.467   3.467   3.467   3.467   3.467   3.467   3.467   3.467   3.467   3.467   3.467   3.467   3.467   3.467   3.467   3.467   3.467
     9.57    3.467   3.467   3.467   3.467   3.467   3.467   3.467   3.467   3.467   3.467   3.467   3.467   3.467   3.467   3.467   3.467   3.467   3.467   3.467   3.467   3.467   3.467   3.467   3.467   3.467   3.467   3.467   3.467   3.467   3.467   3.467   3.467   3.467   3.467   3.467   3.467
     1.00    3.467   3.467   3.467   3.467   3.467   3.467   3.467   3.467   3.467   3.467   3.467   3.467   3.467   3.467   3.467   3.467   3.467   3.467   3.467   3.467   3.467   3.467   3.467   3.467   3.467   3.467   3.467   3.467   3.467   3.467   3.467   3.467   3.467   3.467   3.467   3.467

   Height   Standard deviation at grid points for the w component:
   301.00    3.467   3.467   3.467   3.467   3.467   3.467   3.467   3.467   3.467   3.467   3.467   3.467   3.467   3.467   3.467   3.467   3.467   3.467   3.467   3.467   3.467   3.467   3.467   3.467   3.467   3.467   3.467   3.467   3.467   3.467   3.467   3.467   3.467   3.467   3.467   3.467
   292.43    3.467   3.467   3.467   3.467   3.467   3.467   3.467   3.467   3.467   3.467   3.467   3.467   3.467   3.467   3.467   3.467   3.467   3.467   3.467   3.467   3.467   3.467   3.467   3.467   3.467   3.467   3.467   3.467   3.467   3.467   3.467   3.467   3.467   3.467   3.467   3.467
   283.86    3.467   3.467   3.467   3.467   3.467   3.467   3.467   3.467   3.467   3.467   3.467   3.467   3.467   3.467   3.467   3.467   3.467   3.467   3.467   3.467   3.467   3.467   3.467   3.467   3.467   3.467   3.467   3.467   3.467   3.467   3.467   3.467   3.467   3.467   3.467   3.467
   275.29    3.467   3.467   3.467   3.467   3.467   3.467   3.467   3.467   3.467   3.467   3.467   3.467   3.467   3.467   3.467   3.467   3.467   3.467   3.467   3.467   3.467   3.467   3.467   3.467   3.467   3.467   3.467   3.467   3.467   3.467   3.467   3.467   3.467   3.467   3.467   3.467
   266.71    3.467   3.467   3.467   3.467   3.467   3.467   3.467   3.467   3.467   3.467   3.467   3.467   3.467   3.467   3.467   3.467   3.467   3.467   3.467   3.467   3.467   3.467   3.467   3.467   3.467   3.467   3.467   3.467   3.467   3.467   3.467   3.467   3.467   3.467   3.467   3.467
   258.14    3.467   3.467   3.467   3.467   3.467   3.467   3.467   3.467   3.467   3.467   3.467   3.467   3.467   3.467   3.467   3.467   3.467   3.467   3.467   3.467   3.467   3.467   3.467   3.467   3.467   3.467   3.467   3.467   3.467   3.467   3.467   3.467   3.467   3.467   3.467   3.467
   249.57    3.467   3.467   3.467   3.467   3.467   3.467   3.467   3.467   3.467   3.467   3.467   3.467   3.467   3.467   3.467   3.467   3.467   3.467   3.467   3.467   3.467   3.467   3.467   3.467   3.467   3.467   3.467   3.467   3.467   3.467   3.467   3.467   3.467   3.467   3.467   3.467
   241.00    3.467   3.467   3.467   3.467   3.467   3.467   3.467   3.467   3.467   3.467   3.467   3.467   3.467   3.467   3.467   3.467   3.467   3.467   3.467   3.467   3.467   3.467   3.467   3.467   3.467   3.467   3.467   3.467   3.467   3.467   3.467   3.467   3.467   3.467   3.467   3.467
   232.43    3.467   3.467   3.467   3.467   3.467   3.467   3.467   3.467   3.467   3.467   3.467   3.467   3.467   3.467   3.467   3.467   3.467   3.467   3.467   3.467   3.467   3.467   3.467   3.467   3.467   3.467   3.467   3.467   3.467   3.467   3.467   3.467   3.467   3.467   3.467   3.467
   223.86    3.467   3.467   3.467   3.467   3.467   3.467   3.467   3.467   3.467   3.467   3.467   3.467   3.467   3.467   3.467   3.467   3.467   3.467   3.467   3.467   3.467   3.467   3.467   3.467   3.467   3.467   3.467   3.467   3.467   3.467   3.467   3.467   3.467   3.467   3.467   3.467
   215.29    3.467   3.467   3.467   3.467   3.467   3.467   3.467   3.467   3.467   3.467   3.467   3.467   3.467   3.467   3.467   3.467   3.467   3.467   3.467   3.467   3.467   3.467   3.467   3.467   3.467   3.467   3.467   3.467   3.467   3.467   3.467   3.467   3.467   3.467   3.467   3.467
   206.71    3.467   3.467   3.467   3.467   3.467   3.467   3.467   3.467   3.467   3.467   3.467   3.467   3.467   3.467   3.467   3.467   3.467   3.467   3.467   3.467   3.467   3.467   3.467   3.467   3.467   3.467   3.467   3.467   3.467   3.467   3.467   3.467   3.467   3.467   3.467   3.467
   198.14    3.467   3.467   3.467   3.467   3.467   3.467   3.467   3.467   3.467   3.467   3.467   3.467   3.467   3.467   3.467   3.467   3.467   3.467   3.467   3.467   3.467   3.467   3.467   3.467   3.467   3.467   3.467   3.467   3.467   3.467   3.467   3.467   3.467   3.467   3.467   3.467
   189.57    3.467   3.467   3.467   3.467   3.467   3.467   3.467   3.467   3.467   3.467   3.467   3.467   3.467   3.467   3.467   3.467   3.467   3.467   3.467   3.467   3.467   3.467   3.467   3.467   3.467   3.467   3.467   3.467   3.467   3.467   3.467   3.467   3.467   3.467   3.467   3.467
   181.00    3.467   3.467   3.467   3.467   3.467   3.467   3.467   3.467   3.467   3.467   3.467   3.467   3.467   3.467   3.467   3.467   3.467   3.467   3.467   3.467   3.467   3.467   3.467   3.467   3.467   3.467   3.467   3.467   3.467   3.467   3.467   3.467   3.467   3.467   3.467   3.467
   172.43    3.467   3.467   3.467   3.467   3.467   3.467   3.467   3.467   3.467   3.467   3.467   3.467   3.467   3.467   3.467   3.467   3.467   3.467   3.467   3.467   3.467   3.467   3.467   3.467   3.467   3.467   3.467   3.467   3.467   3.467   3.467   3.467   3.467   3.467   3.467   3.467
   163.86    3.467   3.467   3.467   3.467   3.467   3.467   3.467   3.467   3.467   3.467   3.467   3.467   3.467   3.467   3.467   3.467   3.467   3.467   3.467   3.467   3.467   3.467   3.467   3.467   3.467   3.467   3.467   3.467   3.467   3.467   3.467   3.467   3.467   3.467   3.467   3.467
   155.29    3.467   3.467   3.467   3.467   3.467   3.467   3.467   3.467   3.467   3.467   3.467   3.467   3.467   3.467   3.467   3.467   3.467   3.467   3.467   3.467   3.467   3.467   3.467   3.467   3.467   3.467   3.467   3.467   3.467   3.467   3.467   3.467   3.467   3.467   3.467   3.467
   146.71    3.467   3.467   3.467   3.467   3.467   3.467   3.467   3.467   3.467   3.467   3.467   3.467   3.467   3.467   3.467   3.467   3.467   3.467   3.467   3.467   3.467   3.467   3.467   3.467   3.467   3.467   3.467   3.467   3.467   3.467   3.467   3.467   3.467   3.467   3.467   3.467
   138.14    3.467   3.467   3.467   3.467   3.467   3.467   3.467   3.467   3.467   3.467   3.467   3.467   3.467   3.467   3.467   3.467   3.467   3.467   3.467   3.467   3.467   3.467   3.467   3.467   3.467   3.467   3.467   3.467   3.467   3.467   3.467   3.467   3.467   3.467   3.467   3.467
   129.57    3.467   3.467   3.467   3.467   3.467   3.467   3.467   3.467   3.467   3.467   3.467   3.467   3.467   3.467   3.467   3.467   3.467   3.467   3.467   3.467   3.467   3.467   3.467   3.467   3.467   3.467   3.467   3.467   3.467   3.467   3.467   3.467   3.467   3.467   3.467   3.467
   121.00    3.467   3.467   3.467   3.467   3.467   3.467   3.467   3.467   3.467   3.467   3.467   3.467   3.467   3.467   3.467   3.467   3.467   3.467   3.467   3.467   3.467   3.467   3.467   3.467   3.467   3.467   3.467   3.467   3.467   3.467   3.467   3.467   3.467   3.467   3.467   3.467
   112.43    3.467   3.467   3.467   3.467   3.467   3.467   3.467   3.467   3.467   3.467   3.467   3.467   3.467   3.467   3.467   3.467   3.467   3.467   3.467   3.467   3.467   3.467   3.467   3.467   3.467   3.467   3.467   3.467   3.467   3.467   3.467   3.467   3.467   3.467   3.467   3.467
   103.86    3.467   3.467   3.467   3.467   3.467   3.467   3.467   3.467   3.467   3.467   3.467   3.467   3.467   3.467   3.467   3.467   3.467   3.467   3.467   3.467   3.467   3.467   3.467   3.467   3.467   3.467   3.467   3.467   3.467   3.467   3.467   3.467   3.467   3.467   3.467   3.467
    95.29    3.467   3.467   3.467   3.467   3.467   3.467   3.467   3.467   3.467   3.467   3.467   3.467   3.467   3.467   3.467   3.467   3.467   3.467   3.467   3.467   3.467   3.467   3.467   3.467   3.467   3.467   3.467   3.467   3.467   3.467   3.467   3.467   3.467   3.467   3.467   3.467
    86.71    3.467   3.467   3.467   3.467   3.467   3.467   3.467   3.467   3.467   3.467   3.467   3.467   3.467   3.467   3.467   3.467   3.467   3.467   3.467   3.467   3.467   3.467   3.467   3.467   3.467   3.467   3.467   3.467   3.467   3.467   3.467   3.467   3.467   3.467   3.467   3.467
    78.14    3.467   3.467   3.467   3.467   3.467   3.467   3.467   3.467   3.467   3.467   3.467   3.467   3.467   3.467   3.467   3.467   3.467   3.467   3.467   3.467   3.467   3.467   3.467   3.467   3.467   3.467   3.467   3.467   3.467   3.467   3.467   3.467   3.467   3.467   3.467   3.467
    69.57    3.467   3.467   3.467   3.467   3.467   3.467   3.467   3.467   3.467   3.467   3.467   3.467   3.467   3.467   3.467   3.467   3.467   3.467   3.467   3.467   3.467   3.467   3.467   3.467   3.467   3.467   3.467   3.467   3.467   3.467   3.467   3.467   3.467   3.467   3.467   3.467
    61.00    3.467   3.467   3.467   3.467   3.467   3.467   3.467   3.467   3.467   3.467   3.467   3.467   3.467   3.467   3.467   3.467   3.467   3.467   3.467   3.467   3.467   3.467   3.467   3.467   3.467   3.467   3.467   3.467   3.467   3.467   3.467   3.467   3.467   3.467   3.467   3.467
    52.43    3.467   3.467   3.467   3.467   3.467   3.467   3.467   3.467   3.467   3.467   3.467   3.467   3.467   3.467   3.467   3.467   3.467   3.467   3.467   3.467   3.467   3.467   3.467   3.467   3.467   3.467   3.467   3.467   3.467   3.467   3.467   3.467   3.467   3.467   3.467   3.467
    43.86    3.467   3.467   3.467   3.467   3.467   3.467   3.467   3.467   3.467   3.467   3.467   3.467   3.467   3.467   3.467   3.467   3.467   3.467   3.467   3.467   3.467   3.467   3.467   3.467   3.467   3.467   3.467   3.467   3.467   3.467   3.467   3.467   3.467   3.467   3.467   3.467
    35.29    3.467   3.467   3.467   3.467   3.467   3.467   3.467   3.467   3.467   3.467   3.467   3.467   3.467   3.467   3.467   3.467   3.467   3.467   3.467   3.467   3.467   3.467   3.467   3.467   3.467   3.467   3.467   3.467   3.467   3.467   3.467   3.467   3.467   3.467   3.467   3.467
    26.71    3.467   3.467   3.467   3.467   3.467   3.467   3.467   3.467   3.467   3.467   3.467   3.467   3.467   3.467   3.467   3.467   3.467   3.467   3.467   3.467   3.467   3.467   3.467   3.467   3.467   3.467   3.467   3.467   3.467   3.467   3.467   3.467   3.467   3.467   3.467   3.467
    18.14    3.467   3.467   3.467   3.467   3.467   3.467   3.467   3.467   3.467   3.467   3.467   3.467   3.467   3.467   3.467   3.467   3.467   3.467   3.467   3.467   3.467   3.467   3.467   3.467   3.467   3.467   3.467   3.467   3.467   3.467   3.467   3.467   3.467   3.467   3.467   3.467
     9.57    3.467   3.467   3.467   3.467   3.467   3.467   3.467   3.467   3.467   3.467   3.467   3.467   3.467   3.467   3.467   3.467   3.467   3.467   3.467   3.467   3.467   3.467   3.467   3.467   3.467   3.467   3.467   3.467   3.467   3.467   3.467   3.467   3.467   3.467   3.467   3.467
     1.00    3.467   3.467   3.467   3.467   3.467   3.467   3.467   3.467   3.467   3.467   3.467   3.467   3.467   3.467   3.467   3.467   3.467   3.467   3.467   3.467   3.467   3.467   3.467   3.467   3.467   3.467   3.467   3.467   3.467   3.467   3.467   3.467   3.467   3.467   3.467   3.467

   Mean standard deviation across all grid points:
      u component:    3.649 m/s
      v component:    3.467 m/s
      w component:    3.467 m/s


U-component (X) statistics from the interpolated hub point:

   Mean =  21.9408 m/s
   TI   =  16.5502 %


Normalizing Parameters for Binary Data (approximate statistics):

   UBar  =  21.9422 m/s
   TI(u) =  18.3497 %
   TI(v) =  15.7984 %
   TI(w) =  15.7984 %

   Height Offset =   0.0000 m
   Grid Base     =   1.0000 m

Creating a PERIODIC output file.


Processing complete.  17.203 CPU seconds used.
