
This summary file was generated by TurbSim (v2.00.07a-bjj, 14-Jun-2016) on 03-Nov-2023 at 03:21:07.


Runtime Options:

      1701  Random seed #1
    RANLUX  Type of random number generator
         F  Output binary HH turbulence parameters?
         F  Output formatted turbulence parameters?
         F  Output AeroDyn HH files?
         F  Output AeroDyn FF files?
         T  Output BLADED FF files?
         F  Output tower data?
         F  Output formatted FF files?
         F  Output coherent turbulence time step file?
         T  Clockwise rotation when looking downwind?
 0 -  NONE  IEC turbulence models scaled to exact specified standard deviation


Turbine/Model Specifications:

        36  Vertical grid-point matrix dimension
        36  Horizontal grid-point matrix dimension
     0.100  Time step [seconds]
   660.000  Analysis time [seconds]
   660.000  Usable output time [seconds]
   151.000  Hub height [m]
   300.000  Grid height [m]
   300.000  Grid width [m]
     0.000  Vertical flow angle [degrees]
     0.000  Horizontal flow angle [degrees]


Meteorological Boundary Conditions:

    IECVKM  IEC von Karman spectral model
         1  IEC standard: IEC 61400-1 Ed. 3: 2005
         A  IEC turbulence characteristic
       NTM  IEC Normal Turbulence Model
       N/A  IEC Extreme Turbulence Model (ETM) "c" parameter [m/s]
       PL   Wind profile type
   153.000  Reference height [m]
    10.000  Reference wind speed [m/s]
       N/A  Jet height [m]
     0.200  Power law exponent
     0.030  Surface roughness length [m]


Non-IEC Meteorological Boundary Conditions:

       N/A  Site latitude [degrees]
       N/A  Gradient Richardson number
       N/A  Friction or shear velocity [m/s]
       N/A  Mixing layer depth [m]
       N/A  Mean hub u'w' Reynolds stress
       N/A  Mean hub u'v' Reynolds stress
       N/A  Mean hub v'w' Reynolds stress


Spatial Coherence Models:

       IEC  u-component coherence model
      NONE  v-component coherence model
      NONE  w-component coherence model
(   12.000, 0.353E-03)  u-component coherence parameters
                   N/A  v-component coherence parameters
                   N/A  w-component coherence parameters
       N/A  Coherence exponent


You have requested that the following file(s) be generated:

   G:\2023\OpenWECDV1.0.0_x64\BaseLIne\wind\WindL_V_10_seed_1701.wnd (AeroDyn/BLADED full-field wnd file)


Turbulence Simulation Scaling Parameter Summary:

   Turbulence model used                            =  IEC von Karman
   Turbulence characteristic                        =  A
   IEC turbulence type                              =  Normal Turbulence Model
   IEC standard                                     =  IEC 61400-1 Ed. 3: 2005
   Mean wind speed at hub height                    =    9.974 m/s
   Expected value of turbulence intensity at 15 m/s =   16.000%
   Characteristic value of standard deviation       =    2.093 m/s
   Turbulence scale                                 =   42.000 m
   Isotropic integral scale                         =  147.000 m
   Characteristic value of hub turbulence intensity =   20.984%
   Gradient Richardson number                       =    0.000

   Wind profile type                                =  Power law
   Power law exponent                               =    0.200
   Mean shear across rotor disk                     =    0.026 (m/s)/m
   Assumed rotor diameter                           =  300.000 m
   Surface roughness length                         =    0.030 m

   Nyquist frequency of turbulent wind field        =    5.000 Hz

   Number of time steps in the FFT                  =     6600
   Number of time steps output                      =     6600
   Number of points simulated                       =     1297


Mean Flow Angles:

   Vertical   =   0.0 degrees
   Horizontal =   0.0 degrees

Mean Wind Speed Profile:

   Height    Wind Speed   Horizontal Angle  Vertical Angle  U-comp (X)   V-comp (Y)   W-comp (Z)
     (m)        (m/s)         (degrees)       (degrees)       (m/s)        (m/s)        (m/s)   
   ------    ----------   ----------------  --------------  ----------   ----------   ----------
    301.0       11.45            0.00            0.00         11.45         0.00         0.00
    292.4       11.38            0.00            0.00         11.38         0.00         0.00
    283.9       11.32            0.00            0.00         11.32         0.00         0.00
    275.3       11.25            0.00            0.00         11.25         0.00         0.00
    266.7       11.18            0.00            0.00         11.18         0.00         0.00
    258.1       11.10            0.00            0.00         11.10         0.00         0.00
    249.6       11.03            0.00            0.00         11.03         0.00         0.00
    241.0       10.95            0.00            0.00         10.95         0.00         0.00
    232.4       10.87            0.00            0.00         10.87         0.00         0.00
    223.9       10.79            0.00            0.00         10.79         0.00         0.00
    215.3       10.71            0.00            0.00         10.71         0.00         0.00
    206.7       10.62            0.00            0.00         10.62         0.00         0.00
    198.1       10.53            0.00            0.00         10.53         0.00         0.00
    189.6       10.44            0.00            0.00         10.44         0.00         0.00
    181.0       10.34            0.00            0.00         10.34         0.00         0.00
    172.4       10.24            0.00            0.00         10.24         0.00         0.00
    163.9       10.14            0.00            0.00         10.14         0.00         0.00
    155.3       10.03            0.00            0.00         10.03         0.00         0.00
    151.0        9.97            0.00            0.00          9.97         0.00         0.00
    146.7        9.92            0.00            0.00          9.92         0.00         0.00
    138.1        9.80            0.00            0.00          9.80         0.00         0.00
    129.6        9.67            0.00            0.00          9.67         0.00         0.00
    121.0        9.54            0.00            0.00          9.54         0.00         0.00
    112.4        9.40            0.00            0.00          9.40         0.00         0.00
    103.9        9.25            0.00            0.00          9.25         0.00         0.00
     95.3        9.10            0.00            0.00          9.10         0.00         0.00
     86.7        8.93            0.00            0.00          8.93         0.00         0.00
     78.1        8.74            0.00            0.00          8.74         0.00         0.00
     69.6        8.54            0.00            0.00          8.54         0.00         0.00
     61.0        8.32            0.00            0.00          8.32         0.00         0.00
     52.4        8.07            0.00            0.00          8.07         0.00         0.00
     43.9        7.79            0.00            0.00          7.79         0.00         0.00
     35.3        7.46            0.00            0.00          7.46         0.00         0.00
     26.7        7.05            0.00            0.00          7.05         0.00         0.00
     18.1        6.53            0.00            0.00          6.53         0.00         0.00
      9.6        5.74            0.00            0.00          5.74         0.00         0.00
      1.0        3.66            0.00            0.00          3.66         0.00         0.00


Harvested Random Seeds after Generation of the Random Numbers:

    119307688 K 1
            0 K 2


Hub-Height Simulated Turbulence Statistical Summary:

   Type of Wind        Min (m/s)   Mean (m/s)    Max (m/s)  Sigma (m/s)       TI (%)
   ----------------    ---------   ----------    ---------  -----------       ------
   Longitudinal (u)         3.40         9.97        16.67        2.133       21.387
   Lateral (v)             -5.95         0.00         7.14        2.052       20.578
   Vertical (w)            -5.97         0.00         7.20        2.052       20.578
   U component              3.40         9.97        16.67        2.133       21.387
   V component             -5.95         0.00         7.14        2.052       20.578
   W component             -5.97         0.00         7.20        2.052       20.578
   Horizontal (U&V)         3.81        10.19        16.70        2.115       20.760
   Total                    3.93        10.39        16.86        2.134       20.546

                       Min Reynolds     Mean Reynolds    Max Reynolds    Correlation
   Product             Stress (m/s)^2   Stress (m/s)^2   Stress (m/s)^2  Coefficient
   ----------------    --------------   --------------   --------------  -----------
   u'w'                    -28.176             0.056            23.301         0.013
   u'v'                    -24.505            -0.017            22.647        -0.004
   v'w'                    -19.543             0.441            30.888         0.105


   Friction Velocity (Ustar)  =      0.237 m/s
   Maximum Instantaneous TKE  =     37.240 (m/s)^2
   Maximum Instantaneous CTKE =     18.979 (m/s)^2


Grid Point Variance Summary:

   Y-coord -150.00 -141.43 -132.86 -124.29 -115.71 -107.14  -98.57  -90.00  -81.43  -72.86  -64.29  -55.71  -47.14  -38.57  -30.00  -21.43  -12.86   -4.29    4.29   12.86   21.43   30.00   38.57   47.14   55.71   64.29   72.86   81.43   90.00   98.57  107.14  115.71  124.29  132.86  141.43  150.00

   Height   Standard deviation at grid points for the u component:
   301.00    2.593   2.442   2.385   2.478   2.482   2.478   2.584   2.529   2.672   2.569   2.491   2.511   2.351   2.246   2.138   1.963   2.145   2.119   2.102   2.092   2.169   2.375   2.319   2.346   2.103   2.005   2.196   2.095   1.896   1.735   1.907   1.827   1.909   1.826   1.920   1.975
   292.43    2.583   2.455   2.264   2.377   2.460   2.361   2.495   2.613   2.531   2.466   2.466   2.440   2.346   2.263   2.191   2.256   2.227   2.210   2.113   2.050   2.164   2.226   2.257   2.215   1.962   2.190   2.197   2.110   1.795   1.857   1.877   1.897   1.999   1.896   2.040   2.078
   283.86    2.441   2.297   2.277   2.239   2.359   2.433   2.430   2.398   2.435   2.231   2.195   2.305   2.171   2.225   2.269   2.094   2.134   2.176   2.057   2.208   2.100   2.111   2.196   2.317   2.107   2.200   2.208   1.870   1.743   1.788   1.800   2.007   1.994   2.010   2.042   2.050
   275.29    2.575   2.415   2.299   2.235   2.315   2.257   2.197   2.320   2.209   2.101   2.181   2.258   2.208   2.251   2.260   2.213   2.192   2.094   2.250   2.270   2.193   1.919   1.979   2.245   2.190   2.115   2.111   1.952   1.854   1.786   1.766   1.961   1.887   1.966   1.844   1.769
   266.71    2.398   2.402   2.308   2.347   2.407   2.426   2.218   2.223   2.140   2.128   2.300   2.255   2.250   2.245   2.191   2.200   2.247   2.189   2.134   2.082   2.175   1.906   1.899   2.144   2.187   2.195   2.054   2.026   1.943   1.728   1.815   1.960   1.959   1.929   1.798   1.867
   258.14    2.346   2.555   2.457   2.345   2.322   2.255   2.121   2.188   2.216   2.172   2.320   2.364   2.304   2.091   2.109   2.038   2.271   2.452   2.204   2.136   2.098   1.927   1.952   2.062   1.900   2.047   2.040   2.179   2.048   1.988   1.958   1.894   1.962   1.800   1.714   1.761
   249.57    2.277   2.440   2.350   2.399   2.265   2.385   2.202   2.022   2.163   2.229   2.258   2.357   2.283   2.175   2.186   2.196   2.374   2.270   1.920   2.083   2.056   1.989   1.956   1.996   1.958   1.828   1.877   1.894   1.912   2.061   2.130   2.005   1.955   1.868   1.911   2.014
   241.00    2.276   2.342   2.268   2.269   2.189   2.047   2.073   2.025   2.130   2.128   2.046   2.049   2.136   2.175   2.286   2.231   2.152   2.021   2.056   2.022   1.839   1.986   2.105   2.164   1.881   1.770   1.847   1.855   1.877   1.994   2.056   2.066   1.925   1.879   1.924   2.022
   232.43    2.202   2.116   2.147   2.257   2.134   2.026   1.962   1.953   2.033   2.057   2.120   1.957   2.002   2.022   2.080   2.095   2.065   1.795   1.884   1.983   1.831   1.996   2.099   2.042   2.018   1.944   1.904   1.969   2.046   1.944   2.126   2.034   2.020   1.899   1.997   2.009
   223.86    2.083   2.038   2.183   2.181   2.047   2.075   2.039   2.048   2.188   1.956   1.877   1.955   1.960   1.942   1.942   2.053   1.954   1.882   1.898   1.963   2.043   2.250   2.277   2.090   2.116   2.042   1.921   1.861   2.036   2.000   1.995   1.934   2.068   1.984   2.121   2.134
   215.29    2.005   2.152   2.253   2.096   2.154   2.070   2.162   1.974   2.006   1.975   2.047   2.041   1.790   1.834   1.964   2.026   1.943   1.935   1.904   2.065   2.194   2.244   2.271   2.120   1.970   1.907   1.816   1.941   2.119   2.157   2.129   2.121   2.049   1.991   2.050   2.313
   206.71    2.057   2.237   2.173   2.159   2.186   2.183   2.053   2.108   2.025   1.948   2.135   2.094   1.979   1.900   1.996   1.898   1.856   1.872   1.866   1.975   2.093   2.194   2.236   2.189   1.924   1.833   1.891   1.996   2.328   2.192   2.087   1.987   2.123   2.238   2.238   2.461
   198.14    2.091   2.187   2.165   2.250   2.214   2.123   2.224   2.298   2.174   2.113   2.144   2.149   2.000   2.014   1.970   1.919   1.755   1.896   1.996   2.235   2.162   2.059   2.028   1.980   2.000   1.953   2.094   2.000   2.179   2.215   2.134   2.017   2.002   2.160   2.140   2.298
   189.57    2.076   2.007   2.027   2.055   2.286   2.193   2.187   2.067   2.246   2.187   2.181   2.061   2.035   1.918   1.976   1.815   1.931   2.103   2.114   2.170   2.084   2.085   2.048   2.006   2.035   2.038   2.141   1.939   2.122   2.355   2.265   2.126   2.011   1.920   2.154   2.156
   181.00    2.095   1.987   1.906   2.081   2.252   2.278   2.278   2.265   2.151   2.249   2.235   2.040   1.956   1.855   1.797   2.042   1.928   1.922   2.051   2.102   2.058   2.214   2.122   2.299   2.267   2.088   2.107   2.215   2.334   2.337   2.276   2.194   2.063   2.092   2.164   2.061
   172.43    2.061   2.021   1.894   1.941   2.103   2.247   2.114   2.106   2.170   2.086   1.976   1.878   1.857   1.882   1.942   1.875   1.882   1.934   2.117   2.193   2.216   2.174   2.335   2.432   2.315   2.113   2.071   2.285   2.327   2.330   2.146   1.973   1.910   2.026   2.120   2.117
   163.86    1.841   1.798   1.732   1.943   2.130   1.996   2.026   1.934   1.961   1.852   1.887   1.877   1.895   1.932   1.861   1.933   1.928   2.017   2.011   2.082   2.125   2.299   2.257   2.217   2.335   2.040   2.195   2.065   2.234   2.314   2.183   1.912   1.918   2.009   2.001   1.983
   155.29    1.785   1.902   1.842   1.965   2.063   2.056   2.145   1.894   1.835   1.841   1.698   1.874   2.022   2.048   1.944   1.995   1.967   2.021   2.098   1.988   2.026   2.159   2.156   2.182   2.179   2.177   2.135   2.058   2.116   2.259   2.079   2.009   2.060   1.924   1.959   1.881
   146.71    2.062   2.007   2.069   2.095   2.106   2.131   2.107   2.018   1.828   1.822   1.588   1.868   1.908   1.949   1.969   2.119   2.043   1.956   2.174   1.899   2.093   2.114   2.130   2.129   2.311   2.298   2.062   1.978   2.174   2.169   2.129   2.215   2.154   2.086   1.891   1.986
   138.14    2.000   2.118   2.014   2.012   2.085   2.146   2.041   1.982   2.065   1.892   1.755   1.901   1.859   1.961   2.025   2.142   1.892   1.886   1.962   1.897   1.862   2.115   2.112   2.301   2.332   2.195   2.083   2.075   2.051   2.011   2.144   2.210   2.053   1.989   2.077   1.793
   129.57    2.178   2.234   2.034   1.994   2.038   2.175   1.918   2.110   2.147   1.948   1.902   1.972   2.065   2.198   2.231   2.092   1.891   2.003   1.962   1.909   1.923   2.160   2.320   2.348   2.313   2.096   2.148   2.192   2.249   2.215   2.095   2.116   2.047   1.860   1.910   1.895
   121.00    2.420   2.345   2.230   2.114   2.166   2.339   2.344   2.247   2.085   2.077   2.112   2.197   2.108   2.269   2.243   2.197   2.057   2.057   1.953   2.040   2.038   2.007   2.277   2.138   1.976   1.934   2.018   2.104   2.199   2.196   2.146   2.062   1.920   2.038   1.936   1.973
   112.43    2.408   2.577   2.404   2.376   2.393   2.428   2.332   2.328   2.276   2.059   2.248   2.319   2.339   2.300   2.402   2.197   2.290   2.275   2.207   2.132   2.105   2.219   2.249   2.178   1.920   1.979   2.131   2.169   2.273   2.137   2.105   2.121   2.032   2.021   2.018   1.936
   103.86    2.363   2.419   2.239   2.298   2.511   2.517   2.555   2.367   2.331   2.223   2.294   2.343   2.308   2.473   2.502   2.285   2.205   2.246   2.226   2.105   2.242   2.306   2.358   2.230   2.137   2.113   2.182   2.227   2.228   2.190   2.032   2.068   1.921   1.883   1.862   1.882
    95.29    2.300   2.289   2.321   2.414   2.437   2.555   2.455   2.428   2.267   2.266   2.428   2.445   2.528   2.577   2.417   2.372   2.293   2.262   2.269   2.232   2.251   2.499   2.404   2.428   2.261   2.264   2.290   2.221   2.175   2.158   2.055   2.036   1.871   1.917   1.999   1.776
    86.71    2.337   2.215   2.322   2.400   2.424   2.523   2.560   2.485   2.351   2.330   2.366   2.506   2.528   2.587   2.396   2.331   2.263   2.168   2.350   2.334   2.402   2.438   2.479   2.442   2.317   2.285   2.266   2.453   2.303   2.115   2.033   2.002   2.016   2.042   1.935   1.808
    78.14    2.212   2.202   2.309   2.303   2.390   2.488   2.685   2.540   2.473   2.426   2.283   2.437   2.520   2.467   2.489   2.324   2.193   2.213   2.287   2.273   2.298   2.337   2.498   2.647   2.535   2.387   2.348   2.379   2.276   2.216   2.129   2.035   2.014   1.897   1.835   1.720
    69.57    2.313   2.355   2.226   2.350   2.231   2.477   2.414   2.685   2.522   2.469   2.442   2.616   2.562   2.485   2.283   2.257   2.398   2.311   2.254   2.155   2.234   2.492   2.486   2.515   2.546   2.372   2.375   2.344   2.243   2.220   2.086   2.052   2.053   2.048   1.934   1.706
    61.00    2.248   2.222   2.287   2.352   2.339   2.525   2.596   2.549   2.563   2.375   2.492   2.614   2.372   2.340   2.408   2.416   2.517   2.419   2.388   2.186   2.413   2.470   2.589   2.461   2.397   2.391   2.192   2.205   2.354   2.175   2.253   2.133   1.989   1.930   1.935   1.864
    52.43    2.255   2.131   2.180   2.256   2.455   2.453   2.497   2.406   2.597   2.528   2.490   2.375   2.542   2.448   2.424   2.402   2.388   2.262   2.274   2.222   2.431   2.446   2.435   2.460   2.493   2.217   2.209   2.161   2.176   2.223   2.175   2.207   2.230   2.025   1.946   1.971
    43.86    2.047   2.113   2.047   2.280   2.368   2.422   2.382   2.346   2.489   2.517   2.573   2.551   2.502   2.358   2.276   2.471   2.356   2.420   2.337   2.388   2.416   2.495   2.401   2.449   2.375   2.198   2.105   2.186   2.327   2.383   2.162   2.205   2.103   2.031   1.937   1.802
    35.29    1.987   2.134   2.209   2.259   2.233   2.317   2.315   2.257   2.375   2.307   2.403   2.634   2.570   2.479   2.302   2.441   2.533   2.614   2.570   2.276   2.375   2.345   2.410   2.616   2.421   2.217   2.212   2.137   2.322   2.367   2.300   2.166   1.948   2.025   1.971   1.929
    26.71    2.041   2.041   2.037   2.145   2.186   2.238   2.223   2.137   2.287   2.230   2.331   2.566   2.565   2.395   2.299   2.378   2.464   2.540   2.387   2.403   2.352   2.391   2.370   2.410   2.447   2.300   2.215   2.197   2.261   2.341   2.188   2.175   2.037   1.979   1.998   1.949
    18.14    2.010   1.954   2.078   2.011   2.098   2.157   2.176   2.125   2.224   2.349   2.424   2.414   2.390   2.333   2.450   2.449   2.287   2.398   2.311   2.457   2.278   2.185   2.012   2.180   2.295   2.267   2.217   2.155   2.218   2.241   2.087   2.085   1.958   1.918   2.077   2.004
     9.57    2.046   2.064   2.104   2.155   2.092   2.330   2.270   2.186   2.186   2.383   2.511   2.325   2.366   2.534   2.527   2.405   2.166   2.260   2.300   2.287   2.254   2.157   1.994   2.282   2.182   2.263   2.257   2.138   2.176   2.237   2.087   2.173   2.077   2.000   1.981   2.024
     1.00    2.033   2.199   2.063   2.129   2.248   2.310   2.326   2.208   2.259   2.422   2.485   2.325   2.513   2.456   2.471   2.416   2.162   2.241   2.321   2.179   2.179   2.170   2.004   2.106   2.232   2.232   2.199   2.078   2.066   2.089   2.143   2.133   1.975   1.862   1.957   1.892

   Height   Standard deviation at grid points for the v component:
   301.00    2.052   2.052   2.052   2.052   2.052   2.052   2.052   2.052   2.052   2.052   2.052   2.052   2.052   2.052   2.052   2.052   2.052   2.052   2.052   2.052   2.052   2.052   2.052   2.052   2.052   2.052   2.052   2.052   2.052   2.052   2.052   2.052   2.052   2.052   2.052   2.052
   292.43    2.052   2.052   2.052   2.052   2.052   2.052   2.052   2.052   2.052   2.052   2.052   2.052   2.052   2.052   2.052   2.052   2.052   2.052   2.052   2.052   2.052   2.052   2.052   2.052   2.052   2.052   2.052   2.052   2.052   2.052   2.052   2.052   2.052   2.052   2.052   2.052
   283.86    2.052   2.052   2.052   2.052   2.052   2.052   2.052   2.052   2.052   2.052   2.052   2.052   2.052   2.052   2.052   2.052   2.052   2.052   2.052   2.052   2.052   2.052   2.052   2.052   2.052   2.052   2.052   2.052   2.052   2.052   2.052   2.052   2.052   2.052   2.052   2.052
   275.29    2.052   2.052   2.052   2.052   2.052   2.052   2.052   2.052   2.052   2.052   2.052   2.052   2.052   2.052   2.052   2.052   2.052   2.052   2.052   2.052   2.052   2.052   2.052   2.052   2.052   2.052   2.052   2.052   2.052   2.052   2.052   2.052   2.052   2.052   2.052   2.052
   266.71    2.052   2.052   2.052   2.052   2.052   2.052   2.052   2.052   2.052   2.052   2.052   2.052   2.052   2.052   2.052   2.052   2.052   2.052   2.052   2.052   2.052   2.052   2.052   2.052   2.052   2.052   2.052   2.052   2.052   2.052   2.052   2.052   2.052   2.052   2.052   2.052
   258.14    2.052   2.052   2.052   2.052   2.052   2.052   2.052   2.052   2.052   2.052   2.052   2.052   2.052   2.052   2.052   2.052   2.052   2.052   2.052   2.052   2.052   2.052   2.052   2.052   2.052   2.052   2.052   2.052   2.052   2.052   2.052   2.052   2.052   2.052   2.052   2.052
   249.57    2.052   2.052   2.052   2.052   2.052   2.052   2.052   2.052   2.052   2.052   2.052   2.052   2.052   2.052   2.052   2.052   2.052   2.052   2.052   2.052   2.052   2.052   2.052   2.052   2.052   2.052   2.052   2.052   2.052   2.052   2.052   2.052   2.052   2.052   2.052   2.052
   241.00    2.052   2.052   2.052   2.052   2.052   2.052   2.052   2.052   2.052   2.052   2.052   2.052   2.052   2.052   2.052   2.052   2.052   2.052   2.052   2.052   2.052   2.052   2.052   2.052   2.052   2.052   2.052   2.052   2.052   2.052   2.052   2.052   2.052   2.052   2.052   2.052
   232.43    2.052   2.052   2.052   2.052   2.052   2.052   2.052   2.052   2.052   2.052   2.052   2.052   2.052   2.052   2.052   2.052   2.052   2.052   2.052   2.052   2.052   2.052   2.052   2.052   2.052   2.052   2.052   2.052   2.052   2.052   2.052   2.052   2.052   2.052   2.052   2.052
   223.86    2.052   2.052   2.052   2.052   2.052   2.052   2.052   2.052   2.052   2.052   2.052   2.052   2.052   2.052   2.052   2.052   2.052   2.052   2.052   2.052   2.052   2.052   2.052   2.052   2.052   2.052   2.052   2.052   2.052   2.052   2.052   2.052   2.052   2.052   2.052   2.052
   215.29    2.052   2.052   2.052   2.052   2.052   2.052   2.052   2.052   2.052   2.052   2.052   2.052   2.052   2.052   2.052   2.052   2.052   2.052   2.052   2.052   2.052   2.052   2.052   2.052   2.052   2.052   2.052   2.052   2.052   2.052   2.052   2.052   2.052   2.052   2.052   2.052
   206.71    2.052   2.052   2.052   2.052   2.052   2.052   2.052   2.052   2.052   2.052   2.052   2.052   2.052   2.052   2.052   2.052   2.052   2.052   2.052   2.052   2.052   2.052   2.052   2.052   2.052   2.052   2.052   2.052   2.052   2.052   2.052   2.052   2.052   2.052   2.052   2.052
   198.14    2.052   2.052   2.052   2.052   2.052   2.052   2.052   2.052   2.052   2.052   2.052   2.052   2.052   2.052   2.052   2.052   2.052   2.052   2.052   2.052   2.052   2.052   2.052   2.052   2.052   2.052   2.052   2.052   2.052   2.052   2.052   2.052   2.052   2.052   2.052   2.052
   189.57    2.052   2.052   2.052   2.052   2.052   2.052   2.052   2.052   2.052   2.052   2.052   2.052   2.052   2.052   2.052   2.052   2.052   2.052   2.052   2.052   2.052   2.052   2.052   2.052   2.052   2.052   2.052   2.052   2.052   2.052   2.052   2.052   2.052   2.052   2.052   2.052
   181.00    2.052   2.052   2.052   2.052   2.052   2.052   2.052   2.052   2.052   2.052   2.052   2.052   2.052   2.052   2.052   2.052   2.052   2.052   2.052   2.052   2.052   2.052   2.052   2.052   2.052   2.052   2.052   2.052   2.052   2.052   2.052   2.052   2.052   2.052   2.052   2.052
   172.43    2.052   2.052   2.052   2.052   2.052   2.052   2.052   2.052   2.052   2.052   2.052   2.052   2.052   2.052   2.052   2.052   2.052   2.052   2.052   2.052   2.052   2.052   2.052   2.052   2.052   2.052   2.052   2.052   2.052   2.052   2.052   2.052   2.052   2.052   2.052   2.052
   163.86    2.052   2.052   2.052   2.052   2.052   2.052   2.052   2.052   2.052   2.052   2.052   2.052   2.052   2.052   2.052   2.052   2.052   2.052   2.052   2.052   2.052   2.052   2.052   2.052   2.052   2.052   2.052   2.052   2.052   2.052   2.052   2.052   2.052   2.052   2.052   2.052
   155.29    2.052   2.052   2.052   2.052   2.052   2.052   2.052   2.052   2.052   2.052   2.052   2.052   2.052   2.052   2.052   2.052   2.052   2.052   2.052   2.052   2.052   2.052   2.052   2.052   2.052   2.052   2.052   2.052   2.052   2.052   2.052   2.052   2.052   2.052   2.052   2.052
   146.71    2.052   2.052   2.052   2.052   2.052   2.052   2.052   2.052   2.052   2.052   2.052   2.052   2.052   2.052   2.052   2.052   2.052   2.052   2.052   2.052   2.052   2.052   2.052   2.052   2.052   2.052   2.052   2.052   2.052   2.052   2.052   2.052   2.052   2.052   2.052   2.052
   138.14    2.052   2.052   2.052   2.052   2.052   2.052   2.052   2.052   2.052   2.052   2.052   2.052   2.052   2.052   2.052   2.052   2.052   2.052   2.052   2.052   2.052   2.052   2.052   2.052   2.052   2.052   2.052   2.052   2.052   2.052   2.052   2.052   2.052   2.052   2.052   2.052
   129.57    2.052   2.052   2.052   2.052   2.052   2.052   2.052   2.052   2.052   2.052   2.052   2.052   2.052   2.052   2.052   2.052   2.052   2.052   2.052   2.052   2.052   2.052   2.052   2.052   2.052   2.052   2.052   2.052   2.052   2.052   2.052   2.052   2.052   2.052   2.052   2.052
   121.00    2.052   2.052   2.052   2.052   2.052   2.052   2.052   2.052   2.052   2.052   2.052   2.052   2.052   2.052   2.052   2.052   2.052   2.052   2.052   2.052   2.052   2.052   2.052   2.052   2.052   2.052   2.052   2.052   2.052   2.052   2.052   2.052   2.052   2.052   2.052   2.052
   112.43    2.052   2.052   2.052   2.052   2.052   2.052   2.052   2.052   2.052   2.052   2.052   2.052   2.052   2.052   2.052   2.052   2.052   2.052   2.052   2.052   2.052   2.052   2.052   2.052   2.052   2.052   2.052   2.052   2.052   2.052   2.052   2.052   2.052   2.052   2.052   2.052
   103.86    2.052   2.052   2.052   2.052   2.052   2.052   2.052   2.052   2.052   2.052   2.052   2.052   2.052   2.052   2.052   2.052   2.052   2.052   2.052   2.052   2.052   2.052   2.052   2.052   2.052   2.052   2.052   2.052   2.052   2.052   2.052   2.052   2.052   2.052   2.052   2.052
    95.29    2.052   2.052   2.052   2.052   2.052   2.052   2.052   2.052   2.052   2.052   2.052   2.052   2.052   2.052   2.052   2.052   2.052   2.052   2.052   2.052   2.052   2.052   2.052   2.052   2.052   2.052   2.052   2.052   2.052   2.052   2.052   2.052   2.052   2.052   2.052   2.052
    86.71    2.052   2.052   2.052   2.052   2.052   2.052   2.052   2.052   2.052   2.052   2.052   2.052   2.052   2.052   2.052   2.052   2.052   2.052   2.052   2.052   2.052   2.052   2.052   2.052   2.052   2.052   2.052   2.052   2.052   2.052   2.052   2.052   2.052   2.052   2.052   2.052
    78.14    2.052   2.052   2.052   2.052   2.052   2.052   2.052   2.052   2.052   2.052   2.052   2.052   2.052   2.052   2.052   2.052   2.052   2.052   2.052   2.052   2.052   2.052   2.052   2.052   2.052   2.052   2.052   2.052   2.052   2.052   2.052   2.052   2.052   2.052   2.052   2.052
    69.57    2.052   2.052   2.052   2.052   2.052   2.052   2.052   2.052   2.052   2.052   2.052   2.052   2.052   2.052   2.052   2.052   2.052   2.052   2.052   2.052   2.052   2.052   2.052   2.052   2.052   2.052   2.052   2.052   2.052   2.052   2.052   2.052   2.052   2.052   2.052   2.052
    61.00    2.052   2.052   2.052   2.052   2.052   2.052   2.052   2.052   2.052   2.052   2.052   2.052   2.052   2.052   2.052   2.052   2.052   2.052   2.052   2.052   2.052   2.052   2.052   2.052   2.052   2.052   2.052   2.052   2.052   2.052   2.052   2.052   2.052   2.052   2.052   2.052
    52.43    2.052   2.052   2.052   2.052   2.052   2.052   2.052   2.052   2.052   2.052   2.052   2.052   2.052   2.052   2.052   2.052   2.052   2.052   2.052   2.052   2.052   2.052   2.052   2.052   2.052   2.052   2.052   2.052   2.052   2.052   2.052   2.052   2.052   2.052   2.052   2.052
    43.86    2.052   2.052   2.052   2.052   2.052   2.052   2.052   2.052   2.052   2.052   2.052   2.052   2.052   2.052   2.052   2.052   2.052   2.052   2.052   2.052   2.052   2.052   2.052   2.052   2.052   2.052   2.052   2.052   2.052   2.052   2.052   2.052   2.052   2.052   2.052   2.052
    35.29    2.052   2.052   2.052   2.052   2.052   2.052   2.052   2.052   2.052   2.052   2.052   2.052   2.052   2.052   2.052   2.052   2.052   2.052   2.052   2.052   2.052   2.052   2.052   2.052   2.052   2.052   2.052   2.052   2.052   2.052   2.052   2.052   2.052   2.052   2.052   2.052
    26.71    2.052   2.052   2.052   2.052   2.052   2.052   2.052   2.052   2.052   2.052   2.052   2.052   2.052   2.052   2.052   2.052   2.052   2.052   2.052   2.052   2.052   2.052   2.052   2.052   2.052   2.052   2.052   2.052   2.052   2.052   2.052   2.052   2.052   2.052   2.052   2.052
    18.14    2.052   2.052   2.052   2.052   2.052   2.052   2.052   2.052   2.052   2.052   2.052   2.052   2.052   2.052   2.052   2.052   2.052   2.052   2.052   2.052   2.052   2.052   2.052   2.052   2.052   2.052   2.052   2.052   2.052   2.052   2.052   2.052   2.052   2.052   2.052   2.052
     9.57    2.052   2.052   2.052   2.052   2.052   2.052   2.052   2.052   2.052   2.052   2.052   2.052   2.052   2.052   2.052   2.052   2.052   2.052   2.052   2.052   2.052   2.052   2.052   2.052   2.052   2.052   2.052   2.052   2.052   2.052   2.052   2.052   2.052   2.052   2.052   2.052
     1.00    2.052   2.052   2.052   2.052   2.052   2.052   2.052   2.052   2.052   2.052   2.052   2.052   2.052   2.052   2.052   2.052   2.052   2.052   2.052   2.052   2.052   2.052   2.052   2.052   2.052   2.052   2.052   2.052   2.052   2.052   2.052   2.052   2.052   2.052   2.052   2.052

   Height   Standard deviation at grid points for the w component:
   301.00    2.052   2.052   2.052   2.052   2.052   2.052   2.052   2.052   2.052   2.052   2.052   2.052   2.052   2.052   2.052   2.052   2.052   2.052   2.052   2.052   2.052   2.052   2.052   2.052   2.052   2.052   2.052   2.052   2.052   2.052   2.052   2.052   2.052   2.052   2.052   2.052
   292.43    2.052   2.052   2.052   2.052   2.052   2.052   2.052   2.052   2.052   2.052   2.052   2.052   2.052   2.052   2.052   2.052   2.052   2.052   2.052   2.052   2.052   2.052   2.052   2.052   2.052   2.052   2.052   2.052   2.052   2.052   2.052   2.052   2.052   2.052   2.052   2.052
   283.86    2.052   2.052   2.052   2.052   2.052   2.052   2.052   2.052   2.052   2.052   2.052   2.052   2.052   2.052   2.052   2.052   2.052   2.052   2.052   2.052   2.052   2.052   2.052   2.052   2.052   2.052   2.052   2.052   2.052   2.052   2.052   2.052   2.052   2.052   2.052   2.052
   275.29    2.052   2.052   2.052   2.052   2.052   2.052   2.052   2.052   2.052   2.052   2.052   2.052   2.052   2.052   2.052   2.052   2.052   2.052   2.052   2.052   2.052   2.052   2.052   2.052   2.052   2.052   2.052   2.052   2.052   2.052   2.052   2.052   2.052   2.052   2.052   2.052
   266.71    2.052   2.052   2.052   2.052   2.052   2.052   2.052   2.052   2.052   2.052   2.052   2.052   2.052   2.052   2.052   2.052   2.052   2.052   2.052   2.052   2.052   2.052   2.052   2.052   2.052   2.052   2.052   2.052   2.052   2.052   2.052   2.052   2.052   2.052   2.052   2.052
   258.14    2.052   2.052   2.052   2.052   2.052   2.052   2.052   2.052   2.052   2.052   2.052   2.052   2.052   2.052   2.052   2.052   2.052   2.052   2.052   2.052   2.052   2.052   2.052   2.052   2.052   2.052   2.052   2.052   2.052   2.052   2.052   2.052   2.052   2.052   2.052   2.052
   249.57    2.052   2.052   2.052   2.052   2.052   2.052   2.052   2.052   2.052   2.052   2.052   2.052   2.052   2.052   2.052   2.052   2.052   2.052   2.052   2.052   2.052   2.052   2.052   2.052   2.052   2.052   2.052   2.052   2.052   2.052   2.052   2.052   2.052   2.052   2.052   2.052
   241.00    2.052   2.052   2.052   2.052   2.052   2.052   2.052   2.052   2.052   2.052   2.052   2.052   2.052   2.052   2.052   2.052   2.052   2.052   2.052   2.052   2.052   2.052   2.052   2.052   2.052   2.052   2.052   2.052   2.052   2.052   2.052   2.052   2.052   2.052   2.052   2.052
   232.43    2.052   2.052   2.052   2.052   2.052   2.052   2.052   2.052   2.052   2.052   2.052   2.052   2.052   2.052   2.052   2.052   2.052   2.052   2.052   2.052   2.052   2.052   2.052   2.052   2.052   2.052   2.052   2.052   2.052   2.052   2.052   2.052   2.052   2.052   2.052   2.052
   223.86    2.052   2.052   2.052   2.052   2.052   2.052   2.052   2.052   2.052   2.052   2.052   2.052   2.052   2.052   2.052   2.052   2.052   2.052   2.052   2.052   2.052   2.052   2.052   2.052   2.052   2.052   2.052   2.052   2.052   2.052   2.052   2.052   2.052   2.052   2.052   2.052
   215.29    2.052   2.052   2.052   2.052   2.052   2.052   2.052   2.052   2.052   2.052   2.052   2.052   2.052   2.052   2.052   2.052   2.052   2.052   2.052   2.052   2.052   2.052   2.052   2.052   2.052   2.052   2.052   2.052   2.052   2.052   2.052   2.052   2.052   2.052   2.052   2.052
   206.71    2.052   2.052   2.052   2.052   2.052   2.052   2.052   2.052   2.052   2.052   2.052   2.052   2.052   2.052   2.052   2.052   2.052   2.052   2.052   2.052   2.052   2.052   2.052   2.052   2.052   2.052   2.052   2.052   2.052   2.052   2.052   2.052   2.052   2.052   2.052   2.052
   198.14    2.052   2.052   2.052   2.052   2.052   2.052   2.052   2.052   2.052   2.052   2.052   2.052   2.052   2.052   2.052   2.052   2.052   2.052   2.052   2.052   2.052   2.052   2.052   2.052   2.052   2.052   2.052   2.052   2.052   2.052   2.052   2.052   2.052   2.052   2.052   2.052
   189.57    2.052   2.052   2.052   2.052   2.052   2.052   2.052   2.052   2.052   2.052   2.052   2.052   2.052   2.052   2.052   2.052   2.052   2.052   2.052   2.052   2.052   2.052   2.052   2.052   2.052   2.052   2.052   2.052   2.052   2.052   2.052   2.052   2.052   2.052   2.052   2.052
   181.00    2.052   2.052   2.052   2.052   2.052   2.052   2.052   2.052   2.052   2.052   2.052   2.052   2.052   2.052   2.052   2.052   2.052   2.052   2.052   2.052   2.052   2.052   2.052   2.052   2.052   2.052   2.052   2.052   2.052   2.052   2.052   2.052   2.052   2.052   2.052   2.052
   172.43    2.052   2.052   2.052   2.052   2.052   2.052   2.052   2.052   2.052   2.052   2.052   2.052   2.052   2.052   2.052   2.052   2.052   2.052   2.052   2.052   2.052   2.052   2.052   2.052   2.052   2.052   2.052   2.052   2.052   2.052   2.052   2.052   2.052   2.052   2.052   2.052
   163.86    2.052   2.052   2.052   2.052   2.052   2.052   2.052   2.052   2.052   2.052   2.052   2.052   2.052   2.052   2.052   2.052   2.052   2.052   2.052   2.052   2.052   2.052   2.052   2.052   2.052   2.052   2.052   2.052   2.052   2.052   2.052   2.052   2.052   2.052   2.052   2.052
   155.29    2.052   2.052   2.052   2.052   2.052   2.052   2.052   2.052   2.052   2.052   2.052   2.052   2.052   2.052   2.052   2.052   2.052   2.052   2.052   2.052   2.052   2.052   2.052   2.052   2.052   2.052   2.052   2.052   2.052   2.052   2.052   2.052   2.052   2.052   2.052   2.052
   146.71    2.052   2.052   2.052   2.052   2.052   2.052   2.052   2.052   2.052   2.052   2.052   2.052   2.052   2.052   2.052   2.052   2.052   2.052   2.052   2.052   2.052   2.052   2.052   2.052   2.052   2.052   2.052   2.052   2.052   2.052   2.052   2.052   2.052   2.052   2.052   2.052
   138.14    2.052   2.052   2.052   2.052   2.052   2.052   2.052   2.052   2.052   2.052   2.052   2.052   2.052   2.052   2.052   2.052   2.052   2.052   2.052   2.052   2.052   2.052   2.052   2.052   2.052   2.052   2.052   2.052   2.052   2.052   2.052   2.052   2.052   2.052   2.052   2.052
   129.57    2.052   2.052   2.052   2.052   2.052   2.052   2.052   2.052   2.052   2.052   2.052   2.052   2.052   2.052   2.052   2.052   2.052   2.052   2.052   2.052   2.052   2.052   2.052   2.052   2.052   2.052   2.052   2.052   2.052   2.052   2.052   2.052   2.052   2.052   2.052   2.052
   121.00    2.052   2.052   2.052   2.052   2.052   2.052   2.052   2.052   2.052   2.052   2.052   2.052   2.052   2.052   2.052   2.052   2.052   2.052   2.052   2.052   2.052   2.052   2.052   2.052   2.052   2.052   2.052   2.052   2.052   2.052   2.052   2.052   2.052   2.052   2.052   2.052
   112.43    2.052   2.052   2.052   2.052   2.052   2.052   2.052   2.052   2.052   2.052   2.052   2.052   2.052   2.052   2.052   2.052   2.052   2.052   2.052   2.052   2.052   2.052   2.052   2.052   2.052   2.052   2.052   2.052   2.052   2.052   2.052   2.052   2.052   2.052   2.052   2.052
   103.86    2.052   2.052   2.052   2.052   2.052   2.052   2.052   2.052   2.052   2.052   2.052   2.052   2.052   2.052   2.052   2.052   2.052   2.052   2.052   2.052   2.052   2.052   2.052   2.052   2.052   2.052   2.052   2.052   2.052   2.052   2.052   2.052   2.052   2.052   2.052   2.052
    95.29    2.052   2.052   2.052   2.052   2.052   2.052   2.052   2.052   2.052   2.052   2.052   2.052   2.052   2.052   2.052   2.052   2.052   2.052   2.052   2.052   2.052   2.052   2.052   2.052   2.052   2.052   2.052   2.052   2.052   2.052   2.052   2.052   2.052   2.052   2.052   2.052
    86.71    2.052   2.052   2.052   2.052   2.052   2.052   2.052   2.052   2.052   2.052   2.052   2.052   2.052   2.052   2.052   2.052   2.052   2.052   2.052   2.052   2.052   2.052   2.052   2.052   2.052   2.052   2.052   2.052   2.052   2.052   2.052   2.052   2.052   2.052   2.052   2.052
    78.14    2.052   2.052   2.052   2.052   2.052   2.052   2.052   2.052   2.052   2.052   2.052   2.052   2.052   2.052   2.052   2.052   2.052   2.052   2.052   2.052   2.052   2.052   2.052   2.052   2.052   2.052   2.052   2.052   2.052   2.052   2.052   2.052   2.052   2.052   2.052   2.052
    69.57    2.052   2.052   2.052   2.052   2.052   2.052   2.052   2.052   2.052   2.052   2.052   2.052   2.052   2.052   2.052   2.052   2.052   2.052   2.052   2.052   2.052   2.052   2.052   2.052   2.052   2.052   2.052   2.052   2.052   2.052   2.052   2.052   2.052   2.052   2.052   2.052
    61.00    2.052   2.052   2.052   2.052   2.052   2.052   2.052   2.052   2.052   2.052   2.052   2.052   2.052   2.052   2.052   2.052   2.052   2.052   2.052   2.052   2.052   2.052   2.052   2.052   2.052   2.052   2.052   2.052   2.052   2.052   2.052   2.052   2.052   2.052   2.052   2.052
    52.43    2.052   2.052   2.052   2.052   2.052   2.052   2.052   2.052   2.052   2.052   2.052   2.052   2.052   2.052   2.052   2.052   2.052   2.052   2.052   2.052   2.052   2.052   2.052   2.052   2.052   2.052   2.052   2.052   2.052   2.052   2.052   2.052   2.052   2.052   2.052   2.052
    43.86    2.052   2.052   2.052   2.052   2.052   2.052   2.052   2.052   2.052   2.052   2.052   2.052   2.052   2.052   2.052   2.052   2.052   2.052   2.052   2.052   2.052   2.052   2.052   2.052   2.052   2.052   2.052   2.052   2.052   2.052   2.052   2.052   2.052   2.052   2.052   2.052
    35.29    2.052   2.052   2.052   2.052   2.052   2.052   2.052   2.052   2.052   2.052   2.052   2.052   2.052   2.052   2.052   2.052   2.052   2.052   2.052   2.052   2.052   2.052   2.052   2.052   2.052   2.052   2.052   2.052   2.052   2.052   2.052   2.052   2.052   2.052   2.052   2.052
    26.71    2.052   2.052   2.052   2.052   2.052   2.052   2.052   2.052   2.052   2.052   2.052   2.052   2.052   2.052   2.052   2.052   2.052   2.052   2.052   2.052   2.052   2.052   2.052   2.052   2.052   2.052   2.052   2.052   2.052   2.052   2.052   2.052   2.052   2.052   2.052   2.052
    18.14    2.052   2.052   2.052   2.052   2.052   2.052   2.052   2.052   2.052   2.052   2.052   2.052   2.052   2.052   2.052   2.052   2.052   2.052   2.052   2.052   2.052   2.052   2.052   2.052   2.052   2.052   2.052   2.052   2.052   2.052   2.052   2.052   2.052   2.052   2.052   2.052
     9.57    2.052   2.052   2.052   2.052   2.052   2.052   2.052   2.052   2.052   2.052   2.052   2.052   2.052   2.052   2.052   2.052   2.052   2.052   2.052   2.052   2.052   2.052   2.052   2.052   2.052   2.052   2.052   2.052   2.052   2.052   2.052   2.052   2.052   2.052   2.052   2.052
     1.00    2.052   2.052   2.052   2.052   2.052   2.052   2.052   2.052   2.052   2.052   2.052   2.052   2.052   2.052   2.052   2.052   2.052   2.052   2.052   2.052   2.052   2.052   2.052   2.052   2.052   2.052   2.052   2.052   2.052   2.052   2.052   2.052   2.052   2.052   2.052   2.052

   Mean standard deviation across all grid points:
      u component:    2.163 m/s
      v component:    2.052 m/s
      w component:    2.052 m/s


U-component (X) statistics from the interpolated hub point:

   Mean =   9.9731 m/s
   TI   =  18.5652 %


Normalizing Parameters for Binary Data (approximate statistics):

   UBar  =   9.9737 m/s
   TI(u) =  21.3873 %
   TI(v) =  20.5777 %
   TI(w) =  20.5777 %

   Height Offset =   0.0000 m
   Grid Base     =   1.0000 m

Creating a PERIODIC output file.


Processing complete.  116.92 CPU seconds used.
