
This summary file was generated by TurbSim (v2.00.07a-bjj, 14-Jun-2016) on 03-Nov-2023 at 03:24:07.


Runtime Options:

      3901  Random seed #1
    RANLUX  Type of random number generator
         F  Output binary HH turbulence parameters?
         F  Output formatted turbulence parameters?
         F  Output AeroDyn HH files?
         F  Output AeroDyn FF files?
         T  Output BLADED FF files?
         F  Output tower data?
         F  Output formatted FF files?
         F  Output coherent turbulence time step file?
         T  Clockwise rotation when looking downwind?
 0 -  NONE  IEC turbulence models scaled to exact specified standard deviation


Turbine/Model Specifications:

        36  Vertical grid-point matrix dimension
        36  Horizontal grid-point matrix dimension
     0.100  Time step [seconds]
   660.000  Analysis time [seconds]
   660.000  Usable output time [seconds]
   151.000  Hub height [m]
   300.000  Grid height [m]
   300.000  Grid width [m]
     0.000  Vertical flow angle [degrees]
     0.000  Horizontal flow angle [degrees]


Meteorological Boundary Conditions:

    IECVKM  IEC von Karman spectral model
         1  IEC standard: IEC 61400-1 Ed. 3: 2005
         A  IEC turbulence characteristic
       NTM  IEC Normal Turbulence Model
       N/A  IEC Extreme Turbulence Model (ETM) "c" parameter [m/s]
       PL   Wind profile type
   153.000  Reference height [m]
    17.000  Reference wind speed [m/s]
       N/A  Jet height [m]
     0.200  Power law exponent
     0.030  Surface roughness length [m]


Non-IEC Meteorological Boundary Conditions:

       N/A  Site latitude [degrees]
       N/A  Gradient Richardson number
       N/A  Friction or shear velocity [m/s]
       N/A  Mixing layer depth [m]
       N/A  Mean hub u'w' Reynolds stress
       N/A  Mean hub u'v' Reynolds stress
       N/A  Mean hub v'w' Reynolds stress


Spatial Coherence Models:

       IEC  u-component coherence model
      NONE  v-component coherence model
      NONE  w-component coherence model
(   12.000, 0.353E-03)  u-component coherence parameters
                   N/A  v-component coherence parameters
                   N/A  w-component coherence parameters
       N/A  Coherence exponent


You have requested that the following file(s) be generated:

   G:\2023\OpenWECDV1.0.0_x64\BaseLIne\wind\WindL_V_17_seed_3901.wnd (AeroDyn/BLADED full-field wnd file)


Turbulence Simulation Scaling Parameter Summary:

   Turbulence model used                            =  IEC von Karman
   Turbulence characteristic                        =  A
   IEC turbulence type                              =  Normal Turbulence Model
   IEC standard                                     =  IEC 61400-1 Ed. 3: 2005
   Mean wind speed at hub height                    =   16.955 m/s
   Expected value of turbulence intensity at 15 m/s =   16.000%
   Characteristic value of standard deviation       =    2.931 m/s
   Turbulence scale                                 =   42.000 m
   Isotropic integral scale                         =  147.000 m
   Characteristic value of hub turbulence intensity =   17.284%
   Gradient Richardson number                       =    0.000

   Wind profile type                                =  Power law
   Power law exponent                               =    0.200
   Mean shear across rotor disk                     =    0.044 (m/s)/m
   Assumed rotor diameter                           =  300.000 m
   Surface roughness length                         =    0.030 m

   Nyquist frequency of turbulent wind field        =    5.000 Hz

   Number of time steps in the FFT                  =     6600
   Number of time steps output                      =     6600
   Number of points simulated                       =     1297


Mean Flow Angles:

   Vertical   =   0.0 degrees
   Horizontal =   0.0 degrees

Mean Wind Speed Profile:

   Height    Wind Speed   Horizontal Angle  Vertical Angle  U-comp (X)   V-comp (Y)   W-comp (Z)
     (m)        (m/s)         (degrees)       (degrees)       (m/s)        (m/s)        (m/s)   
   ------    ----------   ----------------  --------------  ----------   ----------   ----------
    301.0       19.46            0.00            0.00         19.46         0.00         0.00
    292.4       19.35            0.00            0.00         19.35         0.00         0.00
    283.9       19.24            0.00            0.00         19.24         0.00         0.00
    275.3       19.12            0.00            0.00         19.12         0.00         0.00
    266.7       19.00            0.00            0.00         19.00         0.00         0.00
    258.1       18.87            0.00            0.00         18.87         0.00         0.00
    249.6       18.75            0.00            0.00         18.75         0.00         0.00
    241.0       18.62            0.00            0.00         18.62         0.00         0.00
    232.4       18.48            0.00            0.00         18.48         0.00         0.00
    223.9       18.34            0.00            0.00         18.34         0.00         0.00
    215.3       18.20            0.00            0.00         18.20         0.00         0.00
    206.7       18.05            0.00            0.00         18.05         0.00         0.00
    198.1       17.90            0.00            0.00         17.90         0.00         0.00
    189.6       17.74            0.00            0.00         17.74         0.00         0.00
    181.0       17.58            0.00            0.00         17.58         0.00         0.00
    172.4       17.41            0.00            0.00         17.41         0.00         0.00
    163.9       17.23            0.00            0.00         17.23         0.00         0.00
    155.3       17.05            0.00            0.00         17.05         0.00         0.00
    151.0       16.96            0.00            0.00         16.96         0.00         0.00
    146.7       16.86            0.00            0.00         16.86         0.00         0.00
    138.1       16.66            0.00            0.00         16.66         0.00         0.00
    129.6       16.44            0.00            0.00         16.44         0.00         0.00
    121.0       16.22            0.00            0.00         16.22         0.00         0.00
    112.4       15.98            0.00            0.00         15.98         0.00         0.00
    103.9       15.73            0.00            0.00         15.73         0.00         0.00
     95.3       15.46            0.00            0.00         15.46         0.00         0.00
     86.7       15.18            0.00            0.00         15.18         0.00         0.00
     78.1       14.86            0.00            0.00         14.86         0.00         0.00
     69.6       14.52            0.00            0.00         14.52         0.00         0.00
     61.0       14.14            0.00            0.00         14.14         0.00         0.00
     52.4       13.72            0.00            0.00         13.72         0.00         0.00
     43.9       13.24            0.00            0.00         13.24         0.00         0.00
     35.3       12.68            0.00            0.00         12.68         0.00         0.00
     26.7       11.99            0.00            0.00         11.99         0.00         0.00
     18.1       11.10            0.00            0.00         11.10         0.00         0.00
      9.6        9.77            0.00            0.00          9.77         0.00         0.00
      1.0        6.22            0.00            0.00          6.22         0.00         0.00


Harvested Random Seeds after Generation of the Random Numbers:

    119307688 K 1
            0 K 2


Hub-Height Simulated Turbulence Statistical Summary:

   Type of Wind        Min (m/s)   Mean (m/s)    Max (m/s)  Sigma (m/s)       TI (%)
   ----------------    ---------   ----------    ---------  -----------       ------
   Longitudinal (u)         6.59        16.96        25.66        2.800       16.512
   Lateral (v)             -8.54         0.00         9.39        2.879       16.982
   Vertical (w)            -9.13         0.00        11.52        2.879       16.982
   U component              6.59        16.96        25.66        2.800       16.512
   V component             -8.54         0.00         9.39        2.879       16.982
   W component             -9.13         0.00        11.52        2.879       16.982
   Horizontal (U&V)         6.92        17.20        25.68        2.780       16.159
   Total                    7.44        17.45        25.69        2.750       15.763

                       Min Reynolds     Mean Reynolds    Max Reynolds    Correlation
   Product             Stress (m/s)^2   Stress (m/s)^2   Stress (m/s)^2  Coefficient
   ----------------    --------------   --------------   --------------  -----------
   u'w'                    -39.542            -0.145            52.354        -0.018
   u'v'                    -44.041             0.083            45.452         0.010
   v'w'                    -39.429             1.192            88.340         0.144


   Friction Velocity (Ustar)  =      0.381 m/s
   Maximum Instantaneous TKE  =     93.265 (m/s)^2
   Maximum Instantaneous CTKE =     44.219 (m/s)^2


Grid Point Variance Summary:

   Y-coord -150.00 -141.43 -132.86 -124.29 -115.71 -107.14  -98.57  -90.00  -81.43  -72.86  -64.29  -55.71  -47.14  -38.57  -30.00  -21.43  -12.86   -4.29    4.29   12.86   21.43   30.00   38.57   47.14   55.71   64.29   72.86   81.43   90.00   98.57  107.14  115.71  124.29  132.86  141.43  150.00

   Height   Standard deviation at grid points for the u component:
   301.00    2.556   2.464   2.495   2.552   2.615   2.700   2.653   2.584   2.543   2.581   2.795   2.760   2.811   2.681   2.645   2.551   2.659   2.595   2.824   2.832   2.798   2.664   2.873   2.747   2.872   2.719   2.690   2.679   2.560   2.547   2.570   2.589   2.516   2.560   2.763   2.722
   292.43    2.572   2.440   2.462   2.498   2.638   2.771   2.816   2.578   2.671   2.696   2.766   2.822   2.824   2.619   2.475   2.544   2.609   2.539   2.580   2.721   2.705   2.669   2.799   2.901   2.928   2.619   2.651   2.651   2.760   2.754   2.664   2.678   2.660   2.592   2.782   2.850
   283.86    2.570   2.586   2.508   2.550   2.727   2.863   2.855   2.786   2.815   2.804   2.811   2.851   2.673   2.759   2.564   2.404   2.545   2.619   2.590   2.582   2.521   2.744   2.701   2.778   2.800   2.728   2.841   2.762   2.721   2.745   2.775   2.766   2.836   2.720   2.925   3.044
   275.29    2.768   2.754   2.528   2.689   2.540   2.736   2.696   2.785   2.716   2.852   2.906   2.913   2.699   2.795   2.748   2.528   2.549   2.719   2.662   2.669   2.628   2.875   2.754   2.498   2.623   2.689   2.608   2.666   2.749   2.818   2.650   2.871   2.891   2.884   2.967   3.063
   266.71    2.660   2.701   2.648   2.650   2.832   2.677   2.766   2.718   2.810   2.848   2.949   2.774   2.851   2.657   2.705   2.711   2.625   2.681   2.848   2.769   2.720   2.846   2.567   2.698   2.581   2.686   2.716   2.655   2.745   2.918   2.907   2.927   2.917   2.933   2.845   3.109
   258.14    2.552   2.554   2.559   2.566   2.572   2.628   2.691   2.860   2.827   2.729   2.864   2.838   2.813   2.799   2.836   2.789   2.858   2.860   2.991   2.887   2.839   2.868   2.602   2.662   2.701   2.680   2.681   2.684   2.709   2.956   3.175   3.073   2.956   3.013   3.028   3.292
   249.57    2.592   2.453   2.551   2.509   2.537   2.617   2.608   2.668   2.751   2.697   2.799   2.949   2.985   2.828   2.756   2.962   2.791   3.094   3.116   3.029   2.860   2.690   2.572   2.595   2.559   2.581   2.763   2.705   2.756   2.884   2.987   3.031   2.964   3.012   2.990   3.044
   241.00    2.578   2.489   2.543   2.512   2.776   2.609   2.739   2.740   2.756   2.914   2.991   2.940   2.870   2.808   2.714   2.860   2.921   2.909   2.908   2.957   2.844   2.903   2.839   2.696   2.466   2.658   2.767   2.759   2.729   2.883   2.755   2.924   2.872   2.982   2.916   2.911
   232.43    2.553   2.608   2.568   2.668   2.665   2.719   2.769   2.654   2.750   2.851   2.916   2.922   2.857   2.780   2.854   2.959   2.844   2.839   2.725   2.728   2.784   2.753   2.712   2.488   2.543   2.629   2.734   2.686   2.738   2.551   2.566   2.621   2.725   2.928   2.820   2.772
   223.86    2.637   2.638   2.652   2.594   2.656   2.594   2.772   2.849   2.762   2.840   2.862   2.876   2.875   2.855   2.930   2.903   2.805   2.786   2.650   2.675   2.629   2.474   2.529   2.388   2.563   2.599   2.676   2.639   2.599   2.509   2.458   2.503   2.589   2.687   2.713   2.617
   215.29    2.714   2.908   2.757   2.549   2.471   2.455   2.600   2.787   2.895   2.889   2.820   2.944   3.062   2.965   2.954   2.864   2.797   2.891   2.805   2.648   2.387   2.428   2.543   2.567   2.612   2.540   2.655   2.460   2.448   2.529   2.382   2.439   2.580   2.640   2.618   2.468
   206.71    2.840   2.764   2.723   2.703   2.455   2.481   2.648   2.819   2.832   2.741   2.905   2.998   2.988   2.913   2.997   2.964   2.910   2.800   2.816   2.777   2.556   2.473   2.466   2.567   2.469   2.423   2.413   2.486   2.568   2.414   2.375   2.416   2.515   2.642   2.472   2.349
   198.14    2.979   2.923   2.715   2.553   2.525   2.679   2.708   2.825   2.559   2.702   2.842   2.925   2.834   3.064   2.962   2.884   2.852   2.741   2.756   2.634   2.578   2.589   2.561   2.463   2.431   2.243   2.288   2.443   2.435   2.554   2.366   2.427   2.464   2.525   2.410   2.447
   189.57    2.842   2.892   2.738   2.619   2.440   2.657   2.834   2.770   2.653   2.773   2.846   2.906   2.933   2.858   2.909   2.865   2.824   2.850   2.607   2.710   2.608   2.547   2.566   2.486   2.513   2.274   2.238   2.377   2.455   2.308   2.336   2.370   2.486   2.416   2.564   2.712
   181.00    2.910   2.720   2.796   2.819   2.746   2.864   2.887   2.813   2.887   2.884   2.915   3.001   3.023   2.869   2.869   2.865   2.863   2.855   2.723   2.669   2.633   2.657   2.459   2.489   2.583   2.539   2.415   2.399   2.456   2.445   2.325   2.328   2.175   2.416   2.480   2.542
   172.43    2.908   2.842   2.756   2.685   2.737   2.931   2.980   2.869   2.828   2.929   2.883   2.954   2.968   2.848   2.760   2.748   2.732   2.932   2.874   2.691   2.660   2.681   2.445   2.484   2.594   2.630   2.653   2.542   2.512   2.582   2.344   2.269   2.423   2.588   2.577   2.516
   163.86    2.742   2.745   2.819   2.655   2.701   2.874   2.959   2.778   2.779   2.810   2.810   2.832   2.818   2.803   2.703   2.624   2.901   2.946   2.955   2.929   2.797   2.664   2.470   2.633   2.744   2.791   2.637   2.508   2.389   2.485   2.415   2.332   2.516   2.525   2.539   2.622
   155.29    2.663   2.865   2.854   2.819   2.791   2.882   2.832   2.835   2.834   2.698   2.821   2.883   2.764   2.628   2.693   2.673   2.942   2.902   2.884   2.952   2.857   2.652   2.664   2.658   2.616   2.733   2.617   2.587   2.442   2.555   2.476   2.457   2.497   2.708   2.694   2.654
   146.71    2.955   2.780   2.751   2.880   2.946   2.764   2.817   2.985   2.886   2.721   2.667   2.689   2.861   2.904   2.803   2.837   2.786   2.857   2.793   2.837   2.780   2.808   2.696   2.680   2.714   2.689   2.586   2.572   2.621   2.548   2.644   2.582   2.657   2.599   2.610   2.574
   138.14    2.961   2.838   2.976   2.834   2.848   2.844   2.868   2.986   2.954   2.746   2.759   2.720   2.863   2.792   2.792   2.915   3.027   2.876   2.842   2.732   2.678   2.793   2.844   2.586   2.616   2.635   2.781   2.751   2.728   2.754   2.790   2.663   2.560   2.591   2.581   2.647
   129.57    2.982   3.044   2.843   2.737   2.885   2.972   2.941   3.041   2.980   3.011   2.924   2.826   2.732   2.955   2.865   2.820   2.911   2.958   2.807   2.962   2.947   2.929   2.829   2.585   2.576   2.678   2.704   2.657   2.636   2.650   2.689   2.611   2.611   2.573   2.623   2.761
   121.00    2.935   3.021   2.892   2.741   2.754   2.764   2.778   2.907   2.983   2.926   2.802   2.791   2.829   2.888   2.919   2.886   3.024   2.966   3.167   3.193   3.087   3.089   2.864   2.719   2.445   2.517   2.627   2.659   2.633   2.744   2.674   2.693   2.751   2.701   2.643   2.705
   112.43    2.808   2.809   2.889   2.770   2.756   2.892   2.880   2.859   3.007   2.923   2.944   3.002   2.860   3.056   3.111   3.134   3.059   3.065   3.199   3.198   3.125   2.986   2.986   2.731   2.644   2.651   2.706   2.467   2.575   2.662   2.731   2.648   2.671   2.600   2.580   2.574
   103.86    2.875   2.863   2.758   2.836   2.833   2.878   2.959   2.865   3.039   2.945   2.962   2.947   2.975   3.043   3.153   3.171   3.000   2.999   3.054   3.101   3.146   2.895   2.751   2.955   2.931   2.812   2.650   2.664   2.620   2.732   2.645   2.712   2.577   2.611   2.709   2.588
    95.29    2.718   2.849   2.860   3.036   2.923   2.949   2.980   2.858   3.004   2.905   2.894   3.015   3.013   3.070   3.015   2.999   3.064   2.919   2.863   2.855   3.093   2.953   2.992   3.096   3.044   2.877   2.659   2.804   2.768   2.736   2.671   2.544   2.569   2.631   2.722   2.811
    86.71    2.801   2.866   2.854   2.830   2.779   2.965   2.920   2.925   3.084   3.075   2.993   2.895   2.935   3.067   3.097   3.017   3.026   2.900   2.755   2.766   2.810   2.864   2.874   2.884   3.019   2.833   2.635   2.851   2.717   2.647   2.601   2.511   2.561   2.644   2.746   2.697
    78.14    2.960   2.774   2.936   2.995   2.949   2.949   2.943   3.058   3.091   3.294   3.336   3.162   3.163   3.285   3.276   3.211   3.002   2.854   2.777   2.945   2.865   2.838   2.817   2.848   2.938   2.945   2.794   2.738   2.787   2.632   2.622   2.553   2.631   2.795   2.675   2.848
    69.57    2.936   2.918   2.882   2.957   3.016   2.871   2.795   2.999   3.007   3.204   3.462   3.336   3.227   3.314   3.230   3.192   3.274   2.971   2.993   3.117   2.952   2.707   2.952   2.754   2.928   2.939   2.877   2.678   2.694   2.752   2.641   2.655   2.804   2.753   2.779   2.773
    61.00    2.988   2.907   2.893   2.986   3.083   2.989   2.873   2.972   3.221   3.153   3.325   3.229   3.307   3.145   3.236   3.173   3.054   3.067   3.017   2.958   2.901   2.859   2.927   2.844   2.982   2.982   2.926   2.895   2.770   2.890   2.720   2.775   2.836   2.816   2.794   2.715
    52.43    2.926   2.970   3.010   2.978   3.166   3.145   3.161   3.056   3.000   3.120   3.176   3.060   3.030   3.117   3.058   3.030   2.989   2.990   2.968   2.915   2.735   3.003   2.883   2.761   2.859   2.930   2.985   3.052   2.827   2.797   2.847   2.811   2.885   2.833   2.779   2.693
    43.86    2.949   3.043   3.094   2.982   3.013   3.158   3.115   2.939   3.041   2.769   2.849   3.029   2.868   2.972   3.059   3.079   3.013   2.914   2.858   2.787   2.788   2.951   2.825   2.743   2.989   2.926   2.990   2.935   2.886   2.907   2.742   2.881   2.788   2.655   2.665   2.762
    35.29    2.898   2.969   3.039   3.023   3.133   2.972   3.033   3.074   2.975   2.918   2.925   2.887   2.905   3.111   2.956   3.046   3.068   2.946   2.820   2.772   2.899   2.865   2.585   2.682   2.849   2.875   2.912   2.980   2.888   2.902   3.032   2.888   2.773   2.671   2.623   2.699
    26.71    3.078   2.945   2.923   3.150   3.304   2.914   2.901   3.002   3.002   3.020   2.930   2.798   2.907   3.119   3.106   3.064   3.034   3.034   2.901   2.813   2.674   2.720   2.746   2.915   2.856   2.958   2.977   3.007   3.088   2.939   2.906   2.940   2.847   2.766   2.698   2.626
    18.14    2.912   2.965   3.010   3.056   3.137   2.981   2.952   2.954   2.973   2.847   2.842   2.890   3.008   3.233   3.012   2.978   2.893   2.937   3.000   2.965   2.906   2.834   2.771   2.908   3.000   3.066   3.120   3.055   3.049   2.993   2.913   2.850   2.866   2.816   2.615   2.531
     9.57    2.847   2.872   3.008   3.004   2.923   2.890   2.815   2.872   2.759   2.722   2.773   2.974   3.100   3.197   2.973   2.988   2.938   3.025   2.911   2.956   2.832   2.810   2.775   2.954   3.062   3.160   3.001   2.929   2.943   2.952   3.066   2.779   2.841   2.775   2.513   2.452
     1.00    2.869   2.862   2.901   2.991   2.857   2.912   3.019   2.965   2.748   2.807   2.831   2.950   3.077   3.092   3.073   3.025   2.895   3.037   2.877   2.772   2.806   3.055   3.074   3.106   3.108   3.007   3.049   2.807   2.967   3.071   2.788   2.868   2.831   2.571   2.549   2.488

   Height   Standard deviation at grid points for the v component:
   301.00    2.879   2.879   2.879   2.879   2.879   2.879   2.879   2.879   2.879   2.879   2.879   2.879   2.879   2.879   2.879   2.879   2.879   2.879   2.879   2.879   2.879   2.879   2.879   2.879   2.879   2.879   2.879   2.879   2.879   2.879   2.879   2.879   2.879   2.879   2.879   2.879
   292.43    2.879   2.879   2.879   2.879   2.879   2.879   2.879   2.879   2.879   2.879   2.879   2.879   2.879   2.879   2.879   2.879   2.879   2.879   2.879   2.879   2.879   2.879   2.879   2.879   2.879   2.879   2.879   2.879   2.879   2.879   2.879   2.879   2.879   2.879   2.879   2.879
   283.86    2.879   2.879   2.879   2.879   2.879   2.879   2.879   2.879   2.879   2.879   2.879   2.879   2.879   2.879   2.879   2.879   2.879   2.879   2.879   2.879   2.879   2.879   2.879   2.879   2.879   2.879   2.879   2.879   2.879   2.879   2.879   2.879   2.879   2.879   2.879   2.879
   275.29    2.879   2.879   2.879   2.879   2.879   2.879   2.879   2.879   2.879   2.879   2.879   2.879   2.879   2.879   2.879   2.879   2.879   2.879   2.879   2.879   2.879   2.879   2.879   2.879   2.879   2.879   2.879   2.879   2.879   2.879   2.879   2.879   2.879   2.879   2.879   2.879
   266.71    2.879   2.879   2.879   2.879   2.879   2.879   2.879   2.879   2.879   2.879   2.879   2.879   2.879   2.879   2.879   2.879   2.879   2.879   2.879   2.879   2.879   2.879   2.879   2.879   2.879   2.879   2.879   2.879   2.879   2.879   2.879   2.879   2.879   2.879   2.879   2.879
   258.14    2.879   2.879   2.879   2.879   2.879   2.879   2.879   2.879   2.879   2.879   2.879   2.879   2.879   2.879   2.879   2.879   2.879   2.879   2.879   2.879   2.879   2.879   2.879   2.879   2.879   2.879   2.879   2.879   2.879   2.879   2.879   2.879   2.879   2.879   2.879   2.879
   249.57    2.879   2.879   2.879   2.879   2.879   2.879   2.879   2.879   2.879   2.879   2.879   2.879   2.879   2.879   2.879   2.879   2.879   2.879   2.879   2.879   2.879   2.879   2.879   2.879   2.879   2.879   2.879   2.879   2.879   2.879   2.879   2.879   2.879   2.879   2.879   2.879
   241.00    2.879   2.879   2.879   2.879   2.879   2.879   2.879   2.879   2.879   2.879   2.879   2.879   2.879   2.879   2.879   2.879   2.879   2.879   2.879   2.879   2.879   2.879   2.879   2.879   2.879   2.879   2.879   2.879   2.879   2.879   2.879   2.879   2.879   2.879   2.879   2.879
   232.43    2.879   2.879   2.879   2.879   2.879   2.879   2.879   2.879   2.879   2.879   2.879   2.879   2.879   2.879   2.879   2.879   2.879   2.879   2.879   2.879   2.879   2.879   2.879   2.879   2.879   2.879   2.879   2.879   2.879   2.879   2.879   2.879   2.879   2.879   2.879   2.879
   223.86    2.879   2.879   2.879   2.879   2.879   2.879   2.879   2.879   2.879   2.879   2.879   2.879   2.879   2.879   2.879   2.879   2.879   2.879   2.879   2.879   2.879   2.879   2.879   2.879   2.879   2.879   2.879   2.879   2.879   2.879   2.879   2.879   2.879   2.879   2.879   2.879
   215.29    2.879   2.879   2.879   2.879   2.879   2.879   2.879   2.879   2.879   2.879   2.879   2.879   2.879   2.879   2.879   2.879   2.879   2.879   2.879   2.879   2.879   2.879   2.879   2.879   2.879   2.879   2.879   2.879   2.879   2.879   2.879   2.879   2.879   2.879   2.879   2.879
   206.71    2.879   2.879   2.879   2.879   2.879   2.879   2.879   2.879   2.879   2.879   2.879   2.879   2.879   2.879   2.879   2.879   2.879   2.879   2.879   2.879   2.879   2.879   2.879   2.879   2.879   2.879   2.879   2.879   2.879   2.879   2.879   2.879   2.879   2.879   2.879   2.879
   198.14    2.879   2.879   2.879   2.879   2.879   2.879   2.879   2.879   2.879   2.879   2.879   2.879   2.879   2.879   2.879   2.879   2.879   2.879   2.879   2.879   2.879   2.879   2.879   2.879   2.879   2.879   2.879   2.879   2.879   2.879   2.879   2.879   2.879   2.879   2.879   2.879
   189.57    2.879   2.879   2.879   2.879   2.879   2.879   2.879   2.879   2.879   2.879   2.879   2.879   2.879   2.879   2.879   2.879   2.879   2.879   2.879   2.879   2.879   2.879   2.879   2.879   2.879   2.879   2.879   2.879   2.879   2.879   2.879   2.879   2.879   2.879   2.879   2.879
   181.00    2.879   2.879   2.879   2.879   2.879   2.879   2.879   2.879   2.879   2.879   2.879   2.879   2.879   2.879   2.879   2.879   2.879   2.879   2.879   2.879   2.879   2.879   2.879   2.879   2.879   2.879   2.879   2.879   2.879   2.879   2.879   2.879   2.879   2.879   2.879   2.879
   172.43    2.879   2.879   2.879   2.879   2.879   2.879   2.879   2.879   2.879   2.879   2.879   2.879   2.879   2.879   2.879   2.879   2.879   2.879   2.879   2.879   2.879   2.879   2.879   2.879   2.879   2.879   2.879   2.879   2.879   2.879   2.879   2.879   2.879   2.879   2.879   2.879
   163.86    2.879   2.879   2.879   2.879   2.879   2.879   2.879   2.879   2.879   2.879   2.879   2.879   2.879   2.879   2.879   2.879   2.879   2.879   2.879   2.879   2.879   2.879   2.879   2.879   2.879   2.879   2.879   2.879   2.879   2.879   2.879   2.879   2.879   2.879   2.879   2.879
   155.29    2.879   2.879   2.879   2.879   2.879   2.879   2.879   2.879   2.879   2.879   2.879   2.879   2.879   2.879   2.879   2.879   2.879   2.879   2.879   2.879   2.879   2.879   2.879   2.879   2.879   2.879   2.879   2.879   2.879   2.879   2.879   2.879   2.879   2.879   2.879   2.879
   146.71    2.879   2.879   2.879   2.879   2.879   2.879   2.879   2.879   2.879   2.879   2.879   2.879   2.879   2.879   2.879   2.879   2.879   2.879   2.879   2.879   2.879   2.879   2.879   2.879   2.879   2.879   2.879   2.879   2.879   2.879   2.879   2.879   2.879   2.879   2.879   2.879
   138.14    2.879   2.879   2.879   2.879   2.879   2.879   2.879   2.879   2.879   2.879   2.879   2.879   2.879   2.879   2.879   2.879   2.879   2.879   2.879   2.879   2.879   2.879   2.879   2.879   2.879   2.879   2.879   2.879   2.879   2.879   2.879   2.879   2.879   2.879   2.879   2.879
   129.57    2.879   2.879   2.879   2.879   2.879   2.879   2.879   2.879   2.879   2.879   2.879   2.879   2.879   2.879   2.879   2.879   2.879   2.879   2.879   2.879   2.879   2.879   2.879   2.879   2.879   2.879   2.879   2.879   2.879   2.879   2.879   2.879   2.879   2.879   2.879   2.879
   121.00    2.879   2.879   2.879   2.879   2.879   2.879   2.879   2.879   2.879   2.879   2.879   2.879   2.879   2.879   2.879   2.879   2.879   2.879   2.879   2.879   2.879   2.879   2.879   2.879   2.879   2.879   2.879   2.879   2.879   2.879   2.879   2.879   2.879   2.879   2.879   2.879
   112.43    2.879   2.879   2.879   2.879   2.879   2.879   2.879   2.879   2.879   2.879   2.879   2.879   2.879   2.879   2.879   2.879   2.879   2.879   2.879   2.879   2.879   2.879   2.879   2.879   2.879   2.879   2.879   2.879   2.879   2.879   2.879   2.879   2.879   2.879   2.879   2.879
   103.86    2.879   2.879   2.879   2.879   2.879   2.879   2.879   2.879   2.879   2.879   2.879   2.879   2.879   2.879   2.879   2.879   2.879   2.879   2.879   2.879   2.879   2.879   2.879   2.879   2.879   2.879   2.879   2.879   2.879   2.879   2.879   2.879   2.879   2.879   2.879   2.879
    95.29    2.879   2.879   2.879   2.879   2.879   2.879   2.879   2.879   2.879   2.879   2.879   2.879   2.879   2.879   2.879   2.879   2.879   2.879   2.879   2.879   2.879   2.879   2.879   2.879   2.879   2.879   2.879   2.879   2.879   2.879   2.879   2.879   2.879   2.879   2.879   2.879
    86.71    2.879   2.879   2.879   2.879   2.879   2.879   2.879   2.879   2.879   2.879   2.879   2.879   2.879   2.879   2.879   2.879   2.879   2.879   2.879   2.879   2.879   2.879   2.879   2.879   2.879   2.879   2.879   2.879   2.879   2.879   2.879   2.879   2.879   2.879   2.879   2.879
    78.14    2.879   2.879   2.879   2.879   2.879   2.879   2.879   2.879   2.879   2.879   2.879   2.879   2.879   2.879   2.879   2.879   2.879   2.879   2.879   2.879   2.879   2.879   2.879   2.879   2.879   2.879   2.879   2.879   2.879   2.879   2.879   2.879   2.879   2.879   2.879   2.879
    69.57    2.879   2.879   2.879   2.879   2.879   2.879   2.879   2.879   2.879   2.879   2.879   2.879   2.879   2.879   2.879   2.879   2.879   2.879   2.879   2.879   2.879   2.879   2.879   2.879   2.879   2.879   2.879   2.879   2.879   2.879   2.879   2.879   2.879   2.879   2.879   2.879
    61.00    2.879   2.879   2.879   2.879   2.879   2.879   2.879   2.879   2.879   2.879   2.879   2.879   2.879   2.879   2.879   2.879   2.879   2.879   2.879   2.879   2.879   2.879   2.879   2.879   2.879   2.879   2.879   2.879   2.879   2.879   2.879   2.879   2.879   2.879   2.879   2.879
    52.43    2.879   2.879   2.879   2.879   2.879   2.879   2.879   2.879   2.879   2.879   2.879   2.879   2.879   2.879   2.879   2.879   2.879   2.879   2.879   2.879   2.879   2.879   2.879   2.879   2.879   2.879   2.879   2.879   2.879   2.879   2.879   2.879   2.879   2.879   2.879   2.879
    43.86    2.879   2.879   2.879   2.879   2.879   2.879   2.879   2.879   2.879   2.879   2.879   2.879   2.879   2.879   2.879   2.879   2.879   2.879   2.879   2.879   2.879   2.879   2.879   2.879   2.879   2.879   2.879   2.879   2.879   2.879   2.879   2.879   2.879   2.879   2.879   2.879
    35.29    2.879   2.879   2.879   2.879   2.879   2.879   2.879   2.879   2.879   2.879   2.879   2.879   2.879   2.879   2.879   2.879   2.879   2.879   2.879   2.879   2.879   2.879   2.879   2.879   2.879   2.879   2.879   2.879   2.879   2.879   2.879   2.879   2.879   2.879   2.879   2.879
    26.71    2.879   2.879   2.879   2.879   2.879   2.879   2.879   2.879   2.879   2.879   2.879   2.879   2.879   2.879   2.879   2.879   2.879   2.879   2.879   2.879   2.879   2.879   2.879   2.879   2.879   2.879   2.879   2.879   2.879   2.879   2.879   2.879   2.879   2.879   2.879   2.879
    18.14    2.879   2.879   2.879   2.879   2.879   2.879   2.879   2.879   2.879   2.879   2.879   2.879   2.879   2.879   2.879   2.879   2.879   2.879   2.879   2.879   2.879   2.879   2.879   2.879   2.879   2.879   2.879   2.879   2.879   2.879   2.879   2.879   2.879   2.879   2.879   2.879
     9.57    2.879   2.879   2.879   2.879   2.879   2.879   2.879   2.879   2.879   2.879   2.879   2.879   2.879   2.879   2.879   2.879   2.879   2.879   2.879   2.879   2.879   2.879   2.879   2.879   2.879   2.879   2.879   2.879   2.879   2.879   2.879   2.879   2.879   2.879   2.879   2.879
     1.00    2.879   2.879   2.879   2.879   2.879   2.879   2.879   2.879   2.879   2.879   2.879   2.879   2.879   2.879   2.879   2.879   2.879   2.879   2.879   2.879   2.879   2.879   2.879   2.879   2.879   2.879   2.879   2.879   2.879   2.879   2.879   2.879   2.879   2.879   2.879   2.879

   Height   Standard deviation at grid points for the w component:
   301.00    2.879   2.879   2.879   2.879   2.879   2.879   2.879   2.879   2.879   2.879   2.879   2.879   2.879   2.879   2.879   2.879   2.879   2.879   2.879   2.879   2.879   2.879   2.879   2.879   2.879   2.879   2.879   2.879   2.879   2.879   2.879   2.879   2.879   2.879   2.879   2.879
   292.43    2.879   2.879   2.879   2.879   2.879   2.879   2.879   2.879   2.879   2.879   2.879   2.879   2.879   2.879   2.879   2.879   2.879   2.879   2.879   2.879   2.879   2.879   2.879   2.879   2.879   2.879   2.879   2.879   2.879   2.879   2.879   2.879   2.879   2.879   2.879   2.879
   283.86    2.879   2.879   2.879   2.879   2.879   2.879   2.879   2.879   2.879   2.879   2.879   2.879   2.879   2.879   2.879   2.879   2.879   2.879   2.879   2.879   2.879   2.879   2.879   2.879   2.879   2.879   2.879   2.879   2.879   2.879   2.879   2.879   2.879   2.879   2.879   2.879
   275.29    2.879   2.879   2.879   2.879   2.879   2.879   2.879   2.879   2.879   2.879   2.879   2.879   2.879   2.879   2.879   2.879   2.879   2.879   2.879   2.879   2.879   2.879   2.879   2.879   2.879   2.879   2.879   2.879   2.879   2.879   2.879   2.879   2.879   2.879   2.879   2.879
   266.71    2.879   2.879   2.879   2.879   2.879   2.879   2.879   2.879   2.879   2.879   2.879   2.879   2.879   2.879   2.879   2.879   2.879   2.879   2.879   2.879   2.879   2.879   2.879   2.879   2.879   2.879   2.879   2.879   2.879   2.879   2.879   2.879   2.879   2.879   2.879   2.879
   258.14    2.879   2.879   2.879   2.879   2.879   2.879   2.879   2.879   2.879   2.879   2.879   2.879   2.879   2.879   2.879   2.879   2.879   2.879   2.879   2.879   2.879   2.879   2.879   2.879   2.879   2.879   2.879   2.879   2.879   2.879   2.879   2.879   2.879   2.879   2.879   2.879
   249.57    2.879   2.879   2.879   2.879   2.879   2.879   2.879   2.879   2.879   2.879   2.879   2.879   2.879   2.879   2.879   2.879   2.879   2.879   2.879   2.879   2.879   2.879   2.879   2.879   2.879   2.879   2.879   2.879   2.879   2.879   2.879   2.879   2.879   2.879   2.879   2.879
   241.00    2.879   2.879   2.879   2.879   2.879   2.879   2.879   2.879   2.879   2.879   2.879   2.879   2.879   2.879   2.879   2.879   2.879   2.879   2.879   2.879   2.879   2.879   2.879   2.879   2.879   2.879   2.879   2.879   2.879   2.879   2.879   2.879   2.879   2.879   2.879   2.879
   232.43    2.879   2.879   2.879   2.879   2.879   2.879   2.879   2.879   2.879   2.879   2.879   2.879   2.879   2.879   2.879   2.879   2.879   2.879   2.879   2.879   2.879   2.879   2.879   2.879   2.879   2.879   2.879   2.879   2.879   2.879   2.879   2.879   2.879   2.879   2.879   2.879
   223.86    2.879   2.879   2.879   2.879   2.879   2.879   2.879   2.879   2.879   2.879   2.879   2.879   2.879   2.879   2.879   2.879   2.879   2.879   2.879   2.879   2.879   2.879   2.879   2.879   2.879   2.879   2.879   2.879   2.879   2.879   2.879   2.879   2.879   2.879   2.879   2.879
   215.29    2.879   2.879   2.879   2.879   2.879   2.879   2.879   2.879   2.879   2.879   2.879   2.879   2.879   2.879   2.879   2.879   2.879   2.879   2.879   2.879   2.879   2.879   2.879   2.879   2.879   2.879   2.879   2.879   2.879   2.879   2.879   2.879   2.879   2.879   2.879   2.879
   206.71    2.879   2.879   2.879   2.879   2.879   2.879   2.879   2.879   2.879   2.879   2.879   2.879   2.879   2.879   2.879   2.879   2.879   2.879   2.879   2.879   2.879   2.879   2.879   2.879   2.879   2.879   2.879   2.879   2.879   2.879   2.879   2.879   2.879   2.879   2.879   2.879
   198.14    2.879   2.879   2.879   2.879   2.879   2.879   2.879   2.879   2.879   2.879   2.879   2.879   2.879   2.879   2.879   2.879   2.879   2.879   2.879   2.879   2.879   2.879   2.879   2.879   2.879   2.879   2.879   2.879   2.879   2.879   2.879   2.879   2.879   2.879   2.879   2.879
   189.57    2.879   2.879   2.879   2.879   2.879   2.879   2.879   2.879   2.879   2.879   2.879   2.879   2.879   2.879   2.879   2.879   2.879   2.879   2.879   2.879   2.879   2.879   2.879   2.879   2.879   2.879   2.879   2.879   2.879   2.879   2.879   2.879   2.879   2.879   2.879   2.879
   181.00    2.879   2.879   2.879   2.879   2.879   2.879   2.879   2.879   2.879   2.879   2.879   2.879   2.879   2.879   2.879   2.879   2.879   2.879   2.879   2.879   2.879   2.879   2.879   2.879   2.879   2.879   2.879   2.879   2.879   2.879   2.879   2.879   2.879   2.879   2.879   2.879
   172.43    2.879   2.879   2.879   2.879   2.879   2.879   2.879   2.879   2.879   2.879   2.879   2.879   2.879   2.879   2.879   2.879   2.879   2.879   2.879   2.879   2.879   2.879   2.879   2.879   2.879   2.879   2.879   2.879   2.879   2.879   2.879   2.879   2.879   2.879   2.879   2.879
   163.86    2.879   2.879   2.879   2.879   2.879   2.879   2.879   2.879   2.879   2.879   2.879   2.879   2.879   2.879   2.879   2.879   2.879   2.879   2.879   2.879   2.879   2.879   2.879   2.879   2.879   2.879   2.879   2.879   2.879   2.879   2.879   2.879   2.879   2.879   2.879   2.879
   155.29    2.879   2.879   2.879   2.879   2.879   2.879   2.879   2.879   2.879   2.879   2.879   2.879   2.879   2.879   2.879   2.879   2.879   2.879   2.879   2.879   2.879   2.879   2.879   2.879   2.879   2.879   2.879   2.879   2.879   2.879   2.879   2.879   2.879   2.879   2.879   2.879
   146.71    2.879   2.879   2.879   2.879   2.879   2.879   2.879   2.879   2.879   2.879   2.879   2.879   2.879   2.879   2.879   2.879   2.879   2.879   2.879   2.879   2.879   2.879   2.879   2.879   2.879   2.879   2.879   2.879   2.879   2.879   2.879   2.879   2.879   2.879   2.879   2.879
   138.14    2.879   2.879   2.879   2.879   2.879   2.879   2.879   2.879   2.879   2.879   2.879   2.879   2.879   2.879   2.879   2.879   2.879   2.879   2.879   2.879   2.879   2.879   2.879   2.879   2.879   2.879   2.879   2.879   2.879   2.879   2.879   2.879   2.879   2.879   2.879   2.879
   129.57    2.879   2.879   2.879   2.879   2.879   2.879   2.879   2.879   2.879   2.879   2.879   2.879   2.879   2.879   2.879   2.879   2.879   2.879   2.879   2.879   2.879   2.879   2.879   2.879   2.879   2.879   2.879   2.879   2.879   2.879   2.879   2.879   2.879   2.879   2.879   2.879
   121.00    2.879   2.879   2.879   2.879   2.879   2.879   2.879   2.879   2.879   2.879   2.879   2.879   2.879   2.879   2.879   2.879   2.879   2.879   2.879   2.879   2.879   2.879   2.879   2.879   2.879   2.879   2.879   2.879   2.879   2.879   2.879   2.879   2.879   2.879   2.879   2.879
   112.43    2.879   2.879   2.879   2.879   2.879   2.879   2.879   2.879   2.879   2.879   2.879   2.879   2.879   2.879   2.879   2.879   2.879   2.879   2.879   2.879   2.879   2.879   2.879   2.879   2.879   2.879   2.879   2.879   2.879   2.879   2.879   2.879   2.879   2.879   2.879   2.879
   103.86    2.879   2.879   2.879   2.879   2.879   2.879   2.879   2.879   2.879   2.879   2.879   2.879   2.879   2.879   2.879   2.879   2.879   2.879   2.879   2.879   2.879   2.879   2.879   2.879   2.879   2.879   2.879   2.879   2.879   2.879   2.879   2.879   2.879   2.879   2.879   2.879
    95.29    2.879   2.879   2.879   2.879   2.879   2.879   2.879   2.879   2.879   2.879   2.879   2.879   2.879   2.879   2.879   2.879   2.879   2.879   2.879   2.879   2.879   2.879   2.879   2.879   2.879   2.879   2.879   2.879   2.879   2.879   2.879   2.879   2.879   2.879   2.879   2.879
    86.71    2.879   2.879   2.879   2.879   2.879   2.879   2.879   2.879   2.879   2.879   2.879   2.879   2.879   2.879   2.879   2.879   2.879   2.879   2.879   2.879   2.879   2.879   2.879   2.879   2.879   2.879   2.879   2.879   2.879   2.879   2.879   2.879   2.879   2.879   2.879   2.879
    78.14    2.879   2.879   2.879   2.879   2.879   2.879   2.879   2.879   2.879   2.879   2.879   2.879   2.879   2.879   2.879   2.879   2.879   2.879   2.879   2.879   2.879   2.879   2.879   2.879   2.879   2.879   2.879   2.879   2.879   2.879   2.879   2.879   2.879   2.879   2.879   2.879
    69.57    2.879   2.879   2.879   2.879   2.879   2.879   2.879   2.879   2.879   2.879   2.879   2.879   2.879   2.879   2.879   2.879   2.879   2.879   2.879   2.879   2.879   2.879   2.879   2.879   2.879   2.879   2.879   2.879   2.879   2.879   2.879   2.879   2.879   2.879   2.879   2.879
    61.00    2.879   2.879   2.879   2.879   2.879   2.879   2.879   2.879   2.879   2.879   2.879   2.879   2.879   2.879   2.879   2.879   2.879   2.879   2.879   2.879   2.879   2.879   2.879   2.879   2.879   2.879   2.879   2.879   2.879   2.879   2.879   2.879   2.879   2.879   2.879   2.879
    52.43    2.879   2.879   2.879   2.879   2.879   2.879   2.879   2.879   2.879   2.879   2.879   2.879   2.879   2.879   2.879   2.879   2.879   2.879   2.879   2.879   2.879   2.879   2.879   2.879   2.879   2.879   2.879   2.879   2.879   2.879   2.879   2.879   2.879   2.879   2.879   2.879
    43.86    2.879   2.879   2.879   2.879   2.879   2.879   2.879   2.879   2.879   2.879   2.879   2.879   2.879   2.879   2.879   2.879   2.879   2.879   2.879   2.879   2.879   2.879   2.879   2.879   2.879   2.879   2.879   2.879   2.879   2.879   2.879   2.879   2.879   2.879   2.879   2.879
    35.29    2.879   2.879   2.879   2.879   2.879   2.879   2.879   2.879   2.879   2.879   2.879   2.879   2.879   2.879   2.879   2.879   2.879   2.879   2.879   2.879   2.879   2.879   2.879   2.879   2.879   2.879   2.879   2.879   2.879   2.879   2.879   2.879   2.879   2.879   2.879   2.879
    26.71    2.879   2.879   2.879   2.879   2.879   2.879   2.879   2.879   2.879   2.879   2.879   2.879   2.879   2.879   2.879   2.879   2.879   2.879   2.879   2.879   2.879   2.879   2.879   2.879   2.879   2.879   2.879   2.879   2.879   2.879   2.879   2.879   2.879   2.879   2.879   2.879
    18.14    2.879   2.879   2.879   2.879   2.879   2.879   2.879   2.879   2.879   2.879   2.879   2.879   2.879   2.879   2.879   2.879   2.879   2.879   2.879   2.879   2.879   2.879   2.879   2.879   2.879   2.879   2.879   2.879   2.879   2.879   2.879   2.879   2.879   2.879   2.879   2.879
     9.57    2.879   2.879   2.879   2.879   2.879   2.879   2.879   2.879   2.879   2.879   2.879   2.879   2.879   2.879   2.879   2.879   2.879   2.879   2.879   2.879   2.879   2.879   2.879   2.879   2.879   2.879   2.879   2.879   2.879   2.879   2.879   2.879   2.879   2.879   2.879   2.879
     1.00    2.879   2.879   2.879   2.879   2.879   2.879   2.879   2.879   2.879   2.879   2.879   2.879   2.879   2.879   2.879   2.879   2.879   2.879   2.879   2.879   2.879   2.879   2.879   2.879   2.879   2.879   2.879   2.879   2.879   2.879   2.879   2.879   2.879   2.879   2.879   2.879

   Mean standard deviation across all grid points:
      u component:    2.797 m/s
      v component:    2.879 m/s
      w component:    2.879 m/s


U-component (X) statistics from the interpolated hub point:

   Mean =  16.9542 m/s
   TI   =  14.9696 %


Normalizing Parameters for Binary Data (approximate statistics):

   UBar  =  16.9553 m/s
   TI(u) =  16.5119 %
   TI(v) =  16.9825 %
   TI(w) =  16.9825 %

   Height Offset =   0.0000 m
   Grid Base     =   1.0000 m

Creating a PERIODIC output file.


Processing complete.  114.52 CPU seconds used.
