
This summary file was generated by TurbSim (v2.00.07a-bjj, 14-Jun-2016) on 03-Nov-2023 at 03:32:18.


Runtime Options:

      1501  Random seed #1
    RANLUX  Type of random number generator
         F  Output binary HH turbulence parameters?
         F  Output formatted turbulence parameters?
         F  Output AeroDyn HH files?
         F  Output AeroDyn FF files?
         T  Output BLADED FF files?
         F  Output tower data?
         F  Output formatted FF files?
         F  Output coherent turbulence time step file?
         T  Clockwise rotation when looking downwind?
 0 -  NONE  IEC turbulence models scaled to exact specified standard deviation


Turbine/Model Specifications:

        36  Vertical grid-point matrix dimension
        36  Horizontal grid-point matrix dimension
     0.100  Time step [seconds]
   660.000  Analysis time [seconds]
   660.000  Usable output time [seconds]
   151.000  Hub height [m]
   300.000  Grid height [m]
   300.000  Grid width [m]
     0.000  Vertical flow angle [degrees]
     0.000  Horizontal flow angle [degrees]


Meteorological Boundary Conditions:

    IECVKM  IEC von Karman spectral model
         1  IEC standard: IEC 61400-1 Ed. 3: 2005
         A  IEC turbulence characteristic
       NTM  IEC Normal Turbulence Model
       N/A  IEC Extreme Turbulence Model (ETM) "c" parameter [m/s]
       PL   Wind profile type
   153.000  Reference height [m]
     9.000  Reference wind speed [m/s]
       N/A  Jet height [m]
     0.200  Power law exponent
     0.030  Surface roughness length [m]


Non-IEC Meteorological Boundary Conditions:

       N/A  Site latitude [degrees]
       N/A  Gradient Richardson number
       N/A  Friction or shear velocity [m/s]
       N/A  Mixing layer depth [m]
       N/A  Mean hub u'w' Reynolds stress
       N/A  Mean hub u'v' Reynolds stress
       N/A  Mean hub v'w' Reynolds stress


Spatial Coherence Models:

       IEC  u-component coherence model
      NONE  v-component coherence model
      NONE  w-component coherence model
(   12.000, 0.353E-03)  u-component coherence parameters
                   N/A  v-component coherence parameters
                   N/A  w-component coherence parameters
       N/A  Coherence exponent


You have requested that the following file(s) be generated:

   G:\2023\OpenWECDV1.0.0_x64\BaseLIne\wind\WindL_V_9_seed_1501.wnd (AeroDyn/BLADED full-field wnd file)


Turbulence Simulation Scaling Parameter Summary:

   Turbulence model used                            =  IEC von Karman
   Turbulence characteristic                        =  A
   IEC turbulence type                              =  Normal Turbulence Model
   IEC standard                                     =  IEC 61400-1 Ed. 3: 2005
   Mean wind speed at hub height                    =    8.976 m/s
   Expected value of turbulence intensity at 15 m/s =   16.000%
   Characteristic value of standard deviation       =    1.973 m/s
   Turbulence scale                                 =   42.000 m
   Isotropic integral scale                         =  147.000 m
   Characteristic value of hub turbulence intensity =   21.982%
   Gradient Richardson number                       =    0.000

   Wind profile type                                =  Power law
   Power law exponent                               =    0.200
   Mean shear across rotor disk                     =    0.023 (m/s)/m
   Assumed rotor diameter                           =  300.000 m
   Surface roughness length                         =    0.030 m

   Nyquist frequency of turbulent wind field        =    5.000 Hz

   Number of time steps in the FFT                  =     6600
   Number of time steps output                      =     6600
   Number of points simulated                       =     1297


Mean Flow Angles:

   Vertical   =   0.0 degrees
   Horizontal =   0.0 degrees

Mean Wind Speed Profile:

   Height    Wind Speed   Horizontal Angle  Vertical Angle  U-comp (X)   V-comp (Y)   W-comp (Z)
     (m)        (m/s)         (degrees)       (degrees)       (m/s)        (m/s)        (m/s)   
   ------    ----------   ----------------  --------------  ----------   ----------   ----------
    301.0       10.30            0.00            0.00         10.30         0.00         0.00
    292.4       10.24            0.00            0.00         10.24         0.00         0.00
    283.9       10.18            0.00            0.00         10.18         0.00         0.00
    275.3       10.12            0.00            0.00         10.12         0.00         0.00
    266.7       10.06            0.00            0.00         10.06         0.00         0.00
    258.1        9.99            0.00            0.00          9.99         0.00         0.00
    249.6        9.93            0.00            0.00          9.93         0.00         0.00
    241.0        9.86            0.00            0.00          9.86         0.00         0.00
    232.4        9.79            0.00            0.00          9.79         0.00         0.00
    223.9        9.71            0.00            0.00          9.71         0.00         0.00
    215.3        9.64            0.00            0.00          9.64         0.00         0.00
    206.7        9.56            0.00            0.00          9.56         0.00         0.00
    198.1        9.48            0.00            0.00          9.48         0.00         0.00
    189.6        9.39            0.00            0.00          9.39         0.00         0.00
    181.0        9.31            0.00            0.00          9.31         0.00         0.00
    172.4        9.22            0.00            0.00          9.22         0.00         0.00
    163.9        9.12            0.00            0.00          9.12         0.00         0.00
    155.3        9.03            0.00            0.00          9.03         0.00         0.00
    151.0        8.98            0.00            0.00          8.98         0.00         0.00
    146.7        8.92            0.00            0.00          8.92         0.00         0.00
    138.1        8.82            0.00            0.00          8.82         0.00         0.00
    129.6        8.71            0.00            0.00          8.71         0.00         0.00
    121.0        8.59            0.00            0.00          8.59         0.00         0.00
    112.4        8.46            0.00            0.00          8.46         0.00         0.00
    103.9        8.33            0.00            0.00          8.33         0.00         0.00
     95.3        8.19            0.00            0.00          8.19         0.00         0.00
     86.7        8.03            0.00            0.00          8.03         0.00         0.00
     78.1        7.87            0.00            0.00          7.87         0.00         0.00
     69.6        7.69            0.00            0.00          7.69         0.00         0.00
     61.0        7.49            0.00            0.00          7.49         0.00         0.00
     52.4        7.26            0.00            0.00          7.26         0.00         0.00
     43.9        7.01            0.00            0.00          7.01         0.00         0.00
     35.3        6.71            0.00            0.00          6.71         0.00         0.00
     26.7        6.35            0.00            0.00          6.35         0.00         0.00
     18.1        5.88            0.00            0.00          5.88         0.00         0.00
      9.6        5.17            0.00            0.00          5.17         0.00         0.00
      1.0        3.29            0.00            0.00          3.29         0.00         0.00


Harvested Random Seeds after Generation of the Random Numbers:

    119307688 K 1
            0 K 2


Hub-Height Simulated Turbulence Statistical Summary:

   Type of Wind        Min (m/s)   Mean (m/s)    Max (m/s)  Sigma (m/s)       TI (%)
   ----------------    ---------   ----------    ---------  -----------       ------
   Longitudinal (u)         1.45         8.98        14.56        1.512       16.848
   Lateral (v)             -5.57        -0.00         7.21        1.933       21.539
   Vertical (w)            -6.14        -0.00         5.60        1.933       21.539
   U component              1.45         8.98        14.56        1.512       16.848
   V component             -5.57        -0.00         7.21        1.933       21.539
   W component             -6.14        -0.00         5.60        1.933       21.539
   Horizontal (U&V)         2.88         9.19        14.56        1.467       15.968
   Total                    2.92         9.40        14.68        1.427       15.186

                       Min Reynolds     Mean Reynolds    Max Reynolds    Correlation
   Product             Stress (m/s)^2   Stress (m/s)^2   Stress (m/s)^2  Coefficient
   ----------------    --------------   --------------   --------------  -----------
   u'w'                    -18.615            -0.211            14.798        -0.072
   u'v'                    -15.293             0.020            21.828         0.007
   v'w'                    -19.181             0.531            19.663         0.142


   Friction Velocity (Ustar)  =      0.459 m/s
   Maximum Instantaneous TKE  =     35.345 (m/s)^2
   Maximum Instantaneous CTKE =     14.533 (m/s)^2


Grid Point Variance Summary:

   Y-coord -150.00 -141.43 -132.86 -124.29 -115.71 -107.14  -98.57  -90.00  -81.43  -72.86  -64.29  -55.71  -47.14  -38.57  -30.00  -21.43  -12.86   -4.29    4.29   12.86   21.43   30.00   38.57   47.14   55.71   64.29   72.86   81.43   90.00   98.57  107.14  115.71  124.29  132.86  141.43  150.00

   Height   Standard deviation at grid points for the u component:
   301.00    1.908   1.673   1.847   1.989   1.893   1.867   1.855   1.780   1.703   1.755   1.686   1.645   1.726   1.808   1.770   1.801   1.914   1.935   1.815   1.943   2.187   2.092   2.162   2.133   2.086   2.078   2.072   1.974   2.037   2.034   2.005   1.940   1.989   1.868   2.134   2.160
   292.43    1.929   1.785   1.876   1.752   1.790   1.907   1.914   1.895   1.762   1.621   1.585   1.683   1.616   1.750   1.734   1.883   1.923   1.830   1.884   1.912   2.082   2.026   1.955   2.163   2.132   2.115   1.990   1.945   2.047   1.986   1.948   1.962   1.923   1.993   1.983   2.102
   283.86    1.782   1.955   1.900   1.737   1.789   1.771   1.716   1.661   1.539   1.600   1.547   1.544   1.645   1.748   1.742   1.857   1.886   1.760   1.735   1.852   2.026   2.019   2.079   2.142   2.238   2.132   2.103   2.090   2.006   1.987   1.891   1.874   1.969   2.040   1.930   1.926
   275.29    1.847   1.874   1.923   1.694   1.837   1.827   1.794   1.611   1.642   1.663   1.666   1.731   1.681   1.753   1.773   1.837   1.810   1.784   1.792   1.968   2.018   2.098   1.886   2.129   2.216   2.174   2.059   1.912   1.806   1.994   2.065   1.819   1.771   2.019   1.893   1.849
   266.71    1.863   1.895   1.847   1.763   1.777   1.740   1.795   1.842   1.775   1.751   1.838   1.727   1.781   1.682   1.681   1.700   1.661   1.599   1.881   1.883   1.961   1.932   2.027   2.090   2.177   2.229   1.905   1.886   2.017   1.914   1.989   2.030   1.888   1.937   2.135   2.028
   258.14    1.707   1.912   1.829   1.831   1.852   1.839   1.851   1.917   1.770   1.912   1.810   1.748   1.799   1.795   1.732   1.715   1.630   1.823   1.913   1.970   1.960   1.904   2.035   2.083   2.194   2.212   2.043   1.794   1.849   1.854   1.993   2.037   1.887   1.766   1.949   1.957
   249.57    1.694   1.922   1.965   1.834   1.819   1.946   1.811   1.829   1.970   1.803   1.722   1.860   1.757   1.858   1.867   1.755   1.711   1.825   1.847   1.998   2.005   1.889   2.024   2.155   2.194   1.995   1.953   1.819   1.856   1.871   1.752   1.942   1.925   1.875   1.856   1.986
   241.00    1.734   1.883   1.801   1.681   1.666   1.683   1.808   1.763   1.805   1.757   1.728   1.680   1.670   1.692   1.688   1.667   1.773   1.763   1.709   1.897   2.059   1.994   2.053   2.224   2.173   2.120   1.908   1.987   1.707   1.800   1.887   1.897   1.762   1.949   2.029   2.026
   232.43    1.764   1.881   1.809   1.757   1.819   1.589   1.713   1.808   1.640   1.746   1.689   1.635   1.764   1.672   1.710   1.684   1.710   1.803   1.762   1.886   1.808   1.945   1.956   2.197   2.289   2.027   2.041   1.973   1.809   1.790   1.826   1.763   1.809   1.800   1.764   1.982
   223.86    1.798   1.940   2.035   1.879   2.021   1.832   1.892   1.807   1.782   1.716   1.652   1.777   1.787   1.681   1.574   1.576   1.569   1.777   1.824   1.846   1.907   1.948   2.088   2.019   2.089   2.126   2.099   2.096   1.801   1.793   1.776   1.799   1.743   1.765   1.772   1.939
   215.29    1.852   1.886   1.979   2.041   2.042   1.849   1.812   1.655   1.740   1.800   1.744   1.670   1.768   1.702   1.581   1.565   1.733   1.837   1.831   1.928   1.930   1.850   2.012   1.948   2.054   2.192   2.200   2.117   1.885   1.809   1.682   1.808   1.785   1.779   1.866   1.890
   206.71    2.049   1.954   1.876   1.893   1.895   1.860   1.831   1.711   1.686   1.730   1.678   1.713   1.605   1.604   1.658   1.695   1.697   1.726   1.873   1.924   1.944   1.808   1.817   1.929   2.037   2.166   2.185   2.171   1.927   1.895   1.817   1.823   1.725   1.744   1.822   1.890
   198.14    1.980   2.008   1.798   1.920   1.869   1.805   1.809   1.809   1.695   1.725   1.660   1.581   1.595   1.716   1.643   1.634   1.538   1.736   1.830   1.928   1.945   1.784   1.788   1.945   2.053   2.179   2.154   2.016   1.835   1.930   1.873   1.840   1.725   1.663   1.739   1.870
   189.57    2.015   1.999   1.754   1.766   1.814   1.872   1.642   1.652   1.669   1.695   1.723   1.675   1.679   1.634   1.583   1.562   1.507   1.700   1.883   1.911   1.847   1.778   1.769   1.822   2.026   2.037   2.145   2.136   2.075   1.977   1.948   1.774   1.796   1.830   1.920   1.876
   181.00    1.999   1.884   1.833   1.781   1.704   1.710   1.728   1.764   1.682   1.688   1.669   1.616   1.646   1.683   1.649   1.529   1.540   1.528   1.626   1.638   1.640   1.732   1.862   1.876   1.956   1.929   2.086   2.212   2.144   1.986   1.842   1.937   1.838   1.784   1.805   1.771
   172.43    1.994   1.949   1.939   1.877   1.698   1.820   1.722   1.650   1.611   1.711   1.675   1.521   1.574   1.547   1.605   1.497   1.400   1.411   1.581   1.523   1.655   1.731   1.865   1.947   1.835   1.779   1.857   2.126   1.969   2.036   1.885   1.858   1.733   1.781   1.802   1.766
   163.86    2.147   2.033   2.041   2.001   1.799   1.764   1.759   1.822   1.806   1.636   1.656   1.614   1.586   1.477   1.550   1.478   1.425   1.433   1.507   1.573   1.575   1.766   1.859   1.875   1.756   1.861   1.977   1.902   2.059   2.005   1.846   1.808   1.648   1.698   1.719   1.754
   155.29    2.094   1.929   1.872   1.812   1.719   1.791   1.642   1.749   1.789   1.672   1.605   1.556   1.497   1.542   1.595   1.553   1.381   1.484   1.508   1.529   1.657   1.585   1.789   1.772   1.766   1.777   1.885   2.118   2.033   2.017   1.732   1.691   1.704   1.780   1.673   1.694
   146.71    1.950   2.031   1.945   1.957   1.745   1.819   1.715   1.688   1.651   1.636   1.511   1.576   1.592   1.622   1.597   1.511   1.402   1.459   1.501   1.525   1.623   1.616   1.639   1.652   1.775   1.826   1.793   1.880   2.067   1.888   1.766   1.779   1.830   1.779   1.712   1.549
   138.14    2.149   1.943   1.899   1.981   1.960   1.995   1.740   1.655   1.646   1.519   1.649   1.579   1.689   1.677   1.505   1.550   1.463   1.510   1.411   1.496   1.536   1.578   1.512   1.611   1.709   1.763   1.724   1.708   1.809   1.749   1.800   1.815   1.867   1.793   1.620   1.597
   129.57    2.152   2.054   2.104   2.088   2.011   1.984   1.906   1.696   1.554   1.636   1.561   1.642   1.709   1.733   1.601   1.623   1.538   1.447   1.412   1.538   1.552   1.510   1.502   1.535   1.643   1.705   1.672   1.633   1.739   1.747   1.747   1.707   1.749   1.713   1.714   1.632
   121.00    2.113   2.131   1.974   2.106   2.118   1.992   1.975   1.854   1.651   1.597   1.600   1.572   1.730   1.808   1.617   1.632   1.619   1.728   1.629   1.527   1.590   1.557   1.518   1.472   1.557   1.616   1.741   1.781   1.797   1.751   1.747   1.807   1.750   1.721   1.713   1.619
   112.43    2.073   2.338   2.057   2.222   2.194   2.075   1.973   1.912   1.710   1.735   1.763   1.755   1.671   1.731   1.667   1.650   1.788   1.812   1.648   1.630   1.638   1.644   1.458   1.492   1.617   1.718   1.846   1.815   1.888   1.793   1.687   1.709   1.664   1.620   1.656   1.661
   103.86    2.227   2.087   2.164   2.195   2.191   2.025   1.916   1.822   1.820   1.711   1.868   1.816   1.715   1.820   1.741   1.642   1.668   1.769   1.634   1.803   1.805   1.577   1.579   1.656   1.721   1.741   1.724   1.872   1.749   1.776   1.794   1.722   1.633   1.634   1.648   1.730
    95.29    2.102   1.918   2.027   2.166   2.097   2.045   1.766   1.841   1.748   1.715   1.757   1.776   1.769   1.626   1.697   1.682   1.787   1.739   1.594   1.653   1.665   1.800   1.601   1.629   1.678   1.815   1.868   1.707   1.810   1.914   1.861   1.711   1.796   1.869   1.789   1.862
    86.71    2.078   2.084   2.072   2.108   1.964   1.916   1.764   1.754   1.756   1.707   1.776   1.805   1.638   1.632   1.610   1.626   1.648   1.589   1.616   1.622   1.714   1.687   1.699   1.664   1.809   1.868   1.903   1.817   1.747   1.694   1.790   1.788   1.836   1.883   1.848   1.734
    78.14    2.036   2.147   1.985   2.037   2.047   1.895   1.702   1.829   1.946   1.836   1.840   1.741   1.657   1.790   1.774   1.646   1.509   1.595   1.607   1.631   1.587   1.707   1.720   1.707   1.673   1.776   1.810   1.800   1.680   1.735   1.763   1.826   1.855   1.889   1.770   1.581
    69.57    2.019   2.079   1.972   1.929   2.028   2.026   1.935   1.885   2.049   1.890   1.832   1.922   1.960   1.919   1.800   1.798   1.733   1.579   1.471   1.736   1.761   1.821   1.753   1.635   1.645   1.708   1.872   1.877   1.773   1.703   1.697   1.766   1.954   1.950   1.872   1.680
    61.00    2.104   1.873   1.987   1.866   2.014   1.922   1.929   1.994   2.017   2.070   1.982   1.991   2.004   1.888   1.799   1.683   1.683   1.597   1.659   1.731   1.608   1.667   1.682   1.817   1.840   1.727   1.807   1.665   1.656   1.645   1.540   1.616   1.710   1.782   1.854   1.909
    52.43    2.134   2.030   1.964   1.961   1.855   1.939   2.023   2.091   2.124   2.032   1.891   2.077   2.036   1.923   1.892   1.669   1.855   1.709   1.673   1.685   1.663   1.614   1.840   1.775   1.788   1.823   1.799   1.658   1.503   1.621   1.537   1.596   1.653   1.801   1.869   1.743
    43.86    1.908   2.061   2.030   1.877   1.827   1.931   1.895   2.018   2.028   1.859   2.034   2.127   2.154   1.882   1.767   1.718   1.922   1.886   1.697   1.578   1.713   1.704   1.926   2.043   1.999   1.808   1.872   1.788   1.665   1.762   1.696   1.803   1.880   1.804   1.852   1.845
    35.29    2.077   2.134   2.170   1.922   1.939   2.073   1.943   1.967   2.008   1.874   2.039   2.233   2.113   1.920   1.877   1.680   1.765   1.712   1.778   1.731   1.724   1.690   1.732   1.962   1.959   1.910   1.903   1.860   1.770   1.829   1.833   1.858   1.929   1.755   1.793   1.710
    26.71    1.973   2.040   2.052   1.933   1.832   1.986   2.061   1.931   1.998   1.992   2.130   2.140   2.056   1.850   1.731   1.661   1.740   1.687   1.774   1.928   1.826   1.709   1.745   1.965   1.950   1.859   1.803   1.800   1.960   1.806   1.791   1.881   1.765   1.709   1.676   1.821
    18.14    2.037   1.944   1.882   1.968   1.940   1.964   2.238   1.953   2.098   2.072   2.076   1.976   1.895   1.870   1.809   1.622   1.681   1.804   1.779   1.847   1.692   1.701   1.840   1.716   1.829   1.856   1.678   1.668   1.743   1.746   1.781   1.704   1.770   1.702   1.755   1.749
     9.57    2.017   1.782   1.847   2.001   2.010   2.025   1.978   2.062   1.950   1.941   1.982   1.696   1.725   1.789   1.771   1.725   1.648   1.802   1.776   1.730   1.721   1.733   1.724   1.689   1.759   1.811   1.614   1.639   1.630   1.704   1.838   1.737   1.743   1.770   1.745   1.689
     1.00    1.913   1.947   2.055   1.919   1.972   1.870   1.871   1.776   1.967   1.755   1.924   1.735   1.647   1.761   1.707   1.731   1.754   1.648   1.743   1.695   1.797   1.818   1.576   1.657   1.644   1.781   1.552   1.655   1.655   1.764   1.744   1.657   1.649   1.694   1.625   1.785

   Height   Standard deviation at grid points for the v component:
   301.00    1.933   1.933   1.933   1.933   1.933   1.933   1.933   1.933   1.933   1.933   1.933   1.933   1.933   1.933   1.933   1.933   1.933   1.933   1.933   1.933   1.933   1.933   1.933   1.933   1.933   1.933   1.933   1.933   1.933   1.933   1.933   1.933   1.933   1.933   1.933   1.933
   292.43    1.933   1.933   1.933   1.933   1.933   1.933   1.933   1.933   1.933   1.933   1.933   1.933   1.933   1.933   1.933   1.933   1.933   1.933   1.933   1.933   1.933   1.933   1.933   1.933   1.933   1.933   1.933   1.933   1.933   1.933   1.933   1.933   1.933   1.933   1.933   1.933
   283.86    1.933   1.933   1.933   1.933   1.933   1.933   1.933   1.933   1.933   1.933   1.933   1.933   1.933   1.933   1.933   1.933   1.933   1.933   1.933   1.933   1.933   1.933   1.933   1.933   1.933   1.933   1.933   1.933   1.933   1.933   1.933   1.933   1.933   1.933   1.933   1.933
   275.29    1.933   1.933   1.933   1.933   1.933   1.933   1.933   1.933   1.933   1.933   1.933   1.933   1.933   1.933   1.933   1.933   1.933   1.933   1.933   1.933   1.933   1.933   1.933   1.933   1.933   1.933   1.933   1.933   1.933   1.933   1.933   1.933   1.933   1.933   1.933   1.933
   266.71    1.933   1.933   1.933   1.933   1.933   1.933   1.933   1.933   1.933   1.933   1.933   1.933   1.933   1.933   1.933   1.933   1.933   1.933   1.933   1.933   1.933   1.933   1.933   1.933   1.933   1.933   1.933   1.933   1.933   1.933   1.933   1.933   1.933   1.933   1.933   1.933
   258.14    1.933   1.933   1.933   1.933   1.933   1.933   1.933   1.933   1.933   1.933   1.933   1.933   1.933   1.933   1.933   1.933   1.933   1.933   1.933   1.933   1.933   1.933   1.933   1.933   1.933   1.933   1.933   1.933   1.933   1.933   1.933   1.933   1.933   1.933   1.933   1.933
   249.57    1.933   1.933   1.933   1.933   1.933   1.933   1.933   1.933   1.933   1.933   1.933   1.933   1.933   1.933   1.933   1.933   1.933   1.933   1.933   1.933   1.933   1.933   1.933   1.933   1.933   1.933   1.933   1.933   1.933   1.933   1.933   1.933   1.933   1.933   1.933   1.933
   241.00    1.933   1.933   1.933   1.933   1.933   1.933   1.933   1.933   1.933   1.933   1.933   1.933   1.933   1.933   1.933   1.933   1.933   1.933   1.933   1.933   1.933   1.933   1.933   1.933   1.933   1.933   1.933   1.933   1.933   1.933   1.933   1.933   1.933   1.933   1.933   1.933
   232.43    1.933   1.933   1.933   1.933   1.933   1.933   1.933   1.933   1.933   1.933   1.933   1.933   1.933   1.933   1.933   1.933   1.933   1.933   1.933   1.933   1.933   1.933   1.933   1.933   1.933   1.933   1.933   1.933   1.933   1.933   1.933   1.933   1.933   1.933   1.933   1.933
   223.86    1.933   1.933   1.933   1.933   1.933   1.933   1.933   1.933   1.933   1.933   1.933   1.933   1.933   1.933   1.933   1.933   1.933   1.933   1.933   1.933   1.933   1.933   1.933   1.933   1.933   1.933   1.933   1.933   1.933   1.933   1.933   1.933   1.933   1.933   1.933   1.933
   215.29    1.933   1.933   1.933   1.933   1.933   1.933   1.933   1.933   1.933   1.933   1.933   1.933   1.933   1.933   1.933   1.933   1.933   1.933   1.933   1.933   1.933   1.933   1.933   1.933   1.933   1.933   1.933   1.933   1.933   1.933   1.933   1.933   1.933   1.933   1.933   1.933
   206.71    1.933   1.933   1.933   1.933   1.933   1.933   1.933   1.933   1.933   1.933   1.933   1.933   1.933   1.933   1.933   1.933   1.933   1.933   1.933   1.933   1.933   1.933   1.933   1.933   1.933   1.933   1.933   1.933   1.933   1.933   1.933   1.933   1.933   1.933   1.933   1.933
   198.14    1.933   1.933   1.933   1.933   1.933   1.933   1.933   1.933   1.933   1.933   1.933   1.933   1.933   1.933   1.933   1.933   1.933   1.933   1.933   1.933   1.933   1.933   1.933   1.933   1.933   1.933   1.933   1.933   1.933   1.933   1.933   1.933   1.933   1.933   1.933   1.933
   189.57    1.933   1.933   1.933   1.933   1.933   1.933   1.933   1.933   1.933   1.933   1.933   1.933   1.933   1.933   1.933   1.933   1.933   1.933   1.933   1.933   1.933   1.933   1.933   1.933   1.933   1.933   1.933   1.933   1.933   1.933   1.933   1.933   1.933   1.933   1.933   1.933
   181.00    1.933   1.933   1.933   1.933   1.933   1.933   1.933   1.933   1.933   1.933   1.933   1.933   1.933   1.933   1.933   1.933   1.933   1.933   1.933   1.933   1.933   1.933   1.933   1.933   1.933   1.933   1.933   1.933   1.933   1.933   1.933   1.933   1.933   1.933   1.933   1.933
   172.43    1.933   1.933   1.933   1.933   1.933   1.933   1.933   1.933   1.933   1.933   1.933   1.933   1.933   1.933   1.933   1.933   1.933   1.933   1.933   1.933   1.933   1.933   1.933   1.933   1.933   1.933   1.933   1.933   1.933   1.933   1.933   1.933   1.933   1.933   1.933   1.933
   163.86    1.933   1.933   1.933   1.933   1.933   1.933   1.933   1.933   1.933   1.933   1.933   1.933   1.933   1.933   1.933   1.933   1.933   1.933   1.933   1.933   1.933   1.933   1.933   1.933   1.933   1.933   1.933   1.933   1.933   1.933   1.933   1.933   1.933   1.933   1.933   1.933
   155.29    1.933   1.933   1.933   1.933   1.933   1.933   1.933   1.933   1.933   1.933   1.933   1.933   1.933   1.933   1.933   1.933   1.933   1.933   1.933   1.933   1.933   1.933   1.933   1.933   1.933   1.933   1.933   1.933   1.933   1.933   1.933   1.933   1.933   1.933   1.933   1.933
   146.71    1.933   1.933   1.933   1.933   1.933   1.933   1.933   1.933   1.933   1.933   1.933   1.933   1.933   1.933   1.933   1.933   1.933   1.933   1.933   1.933   1.933   1.933   1.933   1.933   1.933   1.933   1.933   1.933   1.933   1.933   1.933   1.933   1.933   1.933   1.933   1.933
   138.14    1.933   1.933   1.933   1.933   1.933   1.933   1.933   1.933   1.933   1.933   1.933   1.933   1.933   1.933   1.933   1.933   1.933   1.933   1.933   1.933   1.933   1.933   1.933   1.933   1.933   1.933   1.933   1.933   1.933   1.933   1.933   1.933   1.933   1.933   1.933   1.933
   129.57    1.933   1.933   1.933   1.933   1.933   1.933   1.933   1.933   1.933   1.933   1.933   1.933   1.933   1.933   1.933   1.933   1.933   1.933   1.933   1.933   1.933   1.933   1.933   1.933   1.933   1.933   1.933   1.933   1.933   1.933   1.933   1.933   1.933   1.933   1.933   1.933
   121.00    1.933   1.933   1.933   1.933   1.933   1.933   1.933   1.933   1.933   1.933   1.933   1.933   1.933   1.933   1.933   1.933   1.933   1.933   1.933   1.933   1.933   1.933   1.933   1.933   1.933   1.933   1.933   1.933   1.933   1.933   1.933   1.933   1.933   1.933   1.933   1.933
   112.43    1.933   1.933   1.933   1.933   1.933   1.933   1.933   1.933   1.933   1.933   1.933   1.933   1.933   1.933   1.933   1.933   1.933   1.933   1.933   1.933   1.933   1.933   1.933   1.933   1.933   1.933   1.933   1.933   1.933   1.933   1.933   1.933   1.933   1.933   1.933   1.933
   103.86    1.933   1.933   1.933   1.933   1.933   1.933   1.933   1.933   1.933   1.933   1.933   1.933   1.933   1.933   1.933   1.933   1.933   1.933   1.933   1.933   1.933   1.933   1.933   1.933   1.933   1.933   1.933   1.933   1.933   1.933   1.933   1.933   1.933   1.933   1.933   1.933
    95.29    1.933   1.933   1.933   1.933   1.933   1.933   1.933   1.933   1.933   1.933   1.933   1.933   1.933   1.933   1.933   1.933   1.933   1.933   1.933   1.933   1.933   1.933   1.933   1.933   1.933   1.933   1.933   1.933   1.933   1.933   1.933   1.933   1.933   1.933   1.933   1.933
    86.71    1.933   1.933   1.933   1.933   1.933   1.933   1.933   1.933   1.933   1.933   1.933   1.933   1.933   1.933   1.933   1.933   1.933   1.933   1.933   1.933   1.933   1.933   1.933   1.933   1.933   1.933   1.933   1.933   1.933   1.933   1.933   1.933   1.933   1.933   1.933   1.933
    78.14    1.933   1.933   1.933   1.933   1.933   1.933   1.933   1.933   1.933   1.933   1.933   1.933   1.933   1.933   1.933   1.933   1.933   1.933   1.933   1.933   1.933   1.933   1.933   1.933   1.933   1.933   1.933   1.933   1.933   1.933   1.933   1.933   1.933   1.933   1.933   1.933
    69.57    1.933   1.933   1.933   1.933   1.933   1.933   1.933   1.933   1.933   1.933   1.933   1.933   1.933   1.933   1.933   1.933   1.933   1.933   1.933   1.933   1.933   1.933   1.933   1.933   1.933   1.933   1.933   1.933   1.933   1.933   1.933   1.933   1.933   1.933   1.933   1.933
    61.00    1.933   1.933   1.933   1.933   1.933   1.933   1.933   1.933   1.933   1.933   1.933   1.933   1.933   1.933   1.933   1.933   1.933   1.933   1.933   1.933   1.933   1.933   1.933   1.933   1.933   1.933   1.933   1.933   1.933   1.933   1.933   1.933   1.933   1.933   1.933   1.933
    52.43    1.933   1.933   1.933   1.933   1.933   1.933   1.933   1.933   1.933   1.933   1.933   1.933   1.933   1.933   1.933   1.933   1.933   1.933   1.933   1.933   1.933   1.933   1.933   1.933   1.933   1.933   1.933   1.933   1.933   1.933   1.933   1.933   1.933   1.933   1.933   1.933
    43.86    1.933   1.933   1.933   1.933   1.933   1.933   1.933   1.933   1.933   1.933   1.933   1.933   1.933   1.933   1.933   1.933   1.933   1.933   1.933   1.933   1.933   1.933   1.933   1.933   1.933   1.933   1.933   1.933   1.933   1.933   1.933   1.933   1.933   1.933   1.933   1.933
    35.29    1.933   1.933   1.933   1.933   1.933   1.933   1.933   1.933   1.933   1.933   1.933   1.933   1.933   1.933   1.933   1.933   1.933   1.933   1.933   1.933   1.933   1.933   1.933   1.933   1.933   1.933   1.933   1.933   1.933   1.933   1.933   1.933   1.933   1.933   1.933   1.933
    26.71    1.933   1.933   1.933   1.933   1.933   1.933   1.933   1.933   1.933   1.933   1.933   1.933   1.933   1.933   1.933   1.933   1.933   1.933   1.933   1.933   1.933   1.933   1.933   1.933   1.933   1.933   1.933   1.933   1.933   1.933   1.933   1.933   1.933   1.933   1.933   1.933
    18.14    1.933   1.933   1.933   1.933   1.933   1.933   1.933   1.933   1.933   1.933   1.933   1.933   1.933   1.933   1.933   1.933   1.933   1.933   1.933   1.933   1.933   1.933   1.933   1.933   1.933   1.933   1.933   1.933   1.933   1.933   1.933   1.933   1.933   1.933   1.933   1.933
     9.57    1.933   1.933   1.933   1.933   1.933   1.933   1.933   1.933   1.933   1.933   1.933   1.933   1.933   1.933   1.933   1.933   1.933   1.933   1.933   1.933   1.933   1.933   1.933   1.933   1.933   1.933   1.933   1.933   1.933   1.933   1.933   1.933   1.933   1.933   1.933   1.933
     1.00    1.933   1.933   1.933   1.933   1.933   1.933   1.933   1.933   1.933   1.933   1.933   1.933   1.933   1.933   1.933   1.933   1.933   1.933   1.933   1.933   1.933   1.933   1.933   1.933   1.933   1.933   1.933   1.933   1.933   1.933   1.933   1.933   1.933   1.933   1.933   1.933

   Height   Standard deviation at grid points for the w component:
   301.00    1.933   1.933   1.933   1.933   1.933   1.933   1.933   1.933   1.933   1.933   1.933   1.933   1.933   1.933   1.933   1.933   1.933   1.933   1.933   1.933   1.933   1.933   1.933   1.933   1.933   1.933   1.933   1.933   1.933   1.933   1.933   1.933   1.933   1.933   1.933   1.933
   292.43    1.933   1.933   1.933   1.933   1.933   1.933   1.933   1.933   1.933   1.933   1.933   1.933   1.933   1.933   1.933   1.933   1.933   1.933   1.933   1.933   1.933   1.933   1.933   1.933   1.933   1.933   1.933   1.933   1.933   1.933   1.933   1.933   1.933   1.933   1.933   1.933
   283.86    1.933   1.933   1.933   1.933   1.933   1.933   1.933   1.933   1.933   1.933   1.933   1.933   1.933   1.933   1.933   1.933   1.933   1.933   1.933   1.933   1.933   1.933   1.933   1.933   1.933   1.933   1.933   1.933   1.933   1.933   1.933   1.933   1.933   1.933   1.933   1.933
   275.29    1.933   1.933   1.933   1.933   1.933   1.933   1.933   1.933   1.933   1.933   1.933   1.933   1.933   1.933   1.933   1.933   1.933   1.933   1.933   1.933   1.933   1.933   1.933   1.933   1.933   1.933   1.933   1.933   1.933   1.933   1.933   1.933   1.933   1.933   1.933   1.933
   266.71    1.933   1.933   1.933   1.933   1.933   1.933   1.933   1.933   1.933   1.933   1.933   1.933   1.933   1.933   1.933   1.933   1.933   1.933   1.933   1.933   1.933   1.933   1.933   1.933   1.933   1.933   1.933   1.933   1.933   1.933   1.933   1.933   1.933   1.933   1.933   1.933
   258.14    1.933   1.933   1.933   1.933   1.933   1.933   1.933   1.933   1.933   1.933   1.933   1.933   1.933   1.933   1.933   1.933   1.933   1.933   1.933   1.933   1.933   1.933   1.933   1.933   1.933   1.933   1.933   1.933   1.933   1.933   1.933   1.933   1.933   1.933   1.933   1.933
   249.57    1.933   1.933   1.933   1.933   1.933   1.933   1.933   1.933   1.933   1.933   1.933   1.933   1.933   1.933   1.933   1.933   1.933   1.933   1.933   1.933   1.933   1.933   1.933   1.933   1.933   1.933   1.933   1.933   1.933   1.933   1.933   1.933   1.933   1.933   1.933   1.933
   241.00    1.933   1.933   1.933   1.933   1.933   1.933   1.933   1.933   1.933   1.933   1.933   1.933   1.933   1.933   1.933   1.933   1.933   1.933   1.933   1.933   1.933   1.933   1.933   1.933   1.933   1.933   1.933   1.933   1.933   1.933   1.933   1.933   1.933   1.933   1.933   1.933
   232.43    1.933   1.933   1.933   1.933   1.933   1.933   1.933   1.933   1.933   1.933   1.933   1.933   1.933   1.933   1.933   1.933   1.933   1.933   1.933   1.933   1.933   1.933   1.933   1.933   1.933   1.933   1.933   1.933   1.933   1.933   1.933   1.933   1.933   1.933   1.933   1.933
   223.86    1.933   1.933   1.933   1.933   1.933   1.933   1.933   1.933   1.933   1.933   1.933   1.933   1.933   1.933   1.933   1.933   1.933   1.933   1.933   1.933   1.933   1.933   1.933   1.933   1.933   1.933   1.933   1.933   1.933   1.933   1.933   1.933   1.933   1.933   1.933   1.933
   215.29    1.933   1.933   1.933   1.933   1.933   1.933   1.933   1.933   1.933   1.933   1.933   1.933   1.933   1.933   1.933   1.933   1.933   1.933   1.933   1.933   1.933   1.933   1.933   1.933   1.933   1.933   1.933   1.933   1.933   1.933   1.933   1.933   1.933   1.933   1.933   1.933
   206.71    1.933   1.933   1.933   1.933   1.933   1.933   1.933   1.933   1.933   1.933   1.933   1.933   1.933   1.933   1.933   1.933   1.933   1.933   1.933   1.933   1.933   1.933   1.933   1.933   1.933   1.933   1.933   1.933   1.933   1.933   1.933   1.933   1.933   1.933   1.933   1.933
   198.14    1.933   1.933   1.933   1.933   1.933   1.933   1.933   1.933   1.933   1.933   1.933   1.933   1.933   1.933   1.933   1.933   1.933   1.933   1.933   1.933   1.933   1.933   1.933   1.933   1.933   1.933   1.933   1.933   1.933   1.933   1.933   1.933   1.933   1.933   1.933   1.933
   189.57    1.933   1.933   1.933   1.933   1.933   1.933   1.933   1.933   1.933   1.933   1.933   1.933   1.933   1.933   1.933   1.933   1.933   1.933   1.933   1.933   1.933   1.933   1.933   1.933   1.933   1.933   1.933   1.933   1.933   1.933   1.933   1.933   1.933   1.933   1.933   1.933
   181.00    1.933   1.933   1.933   1.933   1.933   1.933   1.933   1.933   1.933   1.933   1.933   1.933   1.933   1.933   1.933   1.933   1.933   1.933   1.933   1.933   1.933   1.933   1.933   1.933   1.933   1.933   1.933   1.933   1.933   1.933   1.933   1.933   1.933   1.933   1.933   1.933
   172.43    1.933   1.933   1.933   1.933   1.933   1.933   1.933   1.933   1.933   1.933   1.933   1.933   1.933   1.933   1.933   1.933   1.933   1.933   1.933   1.933   1.933   1.933   1.933   1.933   1.933   1.933   1.933   1.933   1.933   1.933   1.933   1.933   1.933   1.933   1.933   1.933
   163.86    1.933   1.933   1.933   1.933   1.933   1.933   1.933   1.933   1.933   1.933   1.933   1.933   1.933   1.933   1.933   1.933   1.933   1.933   1.933   1.933   1.933   1.933   1.933   1.933   1.933   1.933   1.933   1.933   1.933   1.933   1.933   1.933   1.933   1.933   1.933   1.933
   155.29    1.933   1.933   1.933   1.933   1.933   1.933   1.933   1.933   1.933   1.933   1.933   1.933   1.933   1.933   1.933   1.933   1.933   1.933   1.933   1.933   1.933   1.933   1.933   1.933   1.933   1.933   1.933   1.933   1.933   1.933   1.933   1.933   1.933   1.933   1.933   1.933
   146.71    1.933   1.933   1.933   1.933   1.933   1.933   1.933   1.933   1.933   1.933   1.933   1.933   1.933   1.933   1.933   1.933   1.933   1.933   1.933   1.933   1.933   1.933   1.933   1.933   1.933   1.933   1.933   1.933   1.933   1.933   1.933   1.933   1.933   1.933   1.933   1.933
   138.14    1.933   1.933   1.933   1.933   1.933   1.933   1.933   1.933   1.933   1.933   1.933   1.933   1.933   1.933   1.933   1.933   1.933   1.933   1.933   1.933   1.933   1.933   1.933   1.933   1.933   1.933   1.933   1.933   1.933   1.933   1.933   1.933   1.933   1.933   1.933   1.933
   129.57    1.933   1.933   1.933   1.933   1.933   1.933   1.933   1.933   1.933   1.933   1.933   1.933   1.933   1.933   1.933   1.933   1.933   1.933   1.933   1.933   1.933   1.933   1.933   1.933   1.933   1.933   1.933   1.933   1.933   1.933   1.933   1.933   1.933   1.933   1.933   1.933
   121.00    1.933   1.933   1.933   1.933   1.933   1.933   1.933   1.933   1.933   1.933   1.933   1.933   1.933   1.933   1.933   1.933   1.933   1.933   1.933   1.933   1.933   1.933   1.933   1.933   1.933   1.933   1.933   1.933   1.933   1.933   1.933   1.933   1.933   1.933   1.933   1.933
   112.43    1.933   1.933   1.933   1.933   1.933   1.933   1.933   1.933   1.933   1.933   1.933   1.933   1.933   1.933   1.933   1.933   1.933   1.933   1.933   1.933   1.933   1.933   1.933   1.933   1.933   1.933   1.933   1.933   1.933   1.933   1.933   1.933   1.933   1.933   1.933   1.933
   103.86    1.933   1.933   1.933   1.933   1.933   1.933   1.933   1.933   1.933   1.933   1.933   1.933   1.933   1.933   1.933   1.933   1.933   1.933   1.933   1.933   1.933   1.933   1.933   1.933   1.933   1.933   1.933   1.933   1.933   1.933   1.933   1.933   1.933   1.933   1.933   1.933
    95.29    1.933   1.933   1.933   1.933   1.933   1.933   1.933   1.933   1.933   1.933   1.933   1.933   1.933   1.933   1.933   1.933   1.933   1.933   1.933   1.933   1.933   1.933   1.933   1.933   1.933   1.933   1.933   1.933   1.933   1.933   1.933   1.933   1.933   1.933   1.933   1.933
    86.71    1.933   1.933   1.933   1.933   1.933   1.933   1.933   1.933   1.933   1.933   1.933   1.933   1.933   1.933   1.933   1.933   1.933   1.933   1.933   1.933   1.933   1.933   1.933   1.933   1.933   1.933   1.933   1.933   1.933   1.933   1.933   1.933   1.933   1.933   1.933   1.933
    78.14    1.933   1.933   1.933   1.933   1.933   1.933   1.933   1.933   1.933   1.933   1.933   1.933   1.933   1.933   1.933   1.933   1.933   1.933   1.933   1.933   1.933   1.933   1.933   1.933   1.933   1.933   1.933   1.933   1.933   1.933   1.933   1.933   1.933   1.933   1.933   1.933
    69.57    1.933   1.933   1.933   1.933   1.933   1.933   1.933   1.933   1.933   1.933   1.933   1.933   1.933   1.933   1.933   1.933   1.933   1.933   1.933   1.933   1.933   1.933   1.933   1.933   1.933   1.933   1.933   1.933   1.933   1.933   1.933   1.933   1.933   1.933   1.933   1.933
    61.00    1.933   1.933   1.933   1.933   1.933   1.933   1.933   1.933   1.933   1.933   1.933   1.933   1.933   1.933   1.933   1.933   1.933   1.933   1.933   1.933   1.933   1.933   1.933   1.933   1.933   1.933   1.933   1.933   1.933   1.933   1.933   1.933   1.933   1.933   1.933   1.933
    52.43    1.933   1.933   1.933   1.933   1.933   1.933   1.933   1.933   1.933   1.933   1.933   1.933   1.933   1.933   1.933   1.933   1.933   1.933   1.933   1.933   1.933   1.933   1.933   1.933   1.933   1.933   1.933   1.933   1.933   1.933   1.933   1.933   1.933   1.933   1.933   1.933
    43.86    1.933   1.933   1.933   1.933   1.933   1.933   1.933   1.933   1.933   1.933   1.933   1.933   1.933   1.933   1.933   1.933   1.933   1.933   1.933   1.933   1.933   1.933   1.933   1.933   1.933   1.933   1.933   1.933   1.933   1.933   1.933   1.933   1.933   1.933   1.933   1.933
    35.29    1.933   1.933   1.933   1.933   1.933   1.933   1.933   1.933   1.933   1.933   1.933   1.933   1.933   1.933   1.933   1.933   1.933   1.933   1.933   1.933   1.933   1.933   1.933   1.933   1.933   1.933   1.933   1.933   1.933   1.933   1.933   1.933   1.933   1.933   1.933   1.933
    26.71    1.933   1.933   1.933   1.933   1.933   1.933   1.933   1.933   1.933   1.933   1.933   1.933   1.933   1.933   1.933   1.933   1.933   1.933   1.933   1.933   1.933   1.933   1.933   1.933   1.933   1.933   1.933   1.933   1.933   1.933   1.933   1.933   1.933   1.933   1.933   1.933
    18.14    1.933   1.933   1.933   1.933   1.933   1.933   1.933   1.933   1.933   1.933   1.933   1.933   1.933   1.933   1.933   1.933   1.933   1.933   1.933   1.933   1.933   1.933   1.933   1.933   1.933   1.933   1.933   1.933   1.933   1.933   1.933   1.933   1.933   1.933   1.933   1.933
     9.57    1.933   1.933   1.933   1.933   1.933   1.933   1.933   1.933   1.933   1.933   1.933   1.933   1.933   1.933   1.933   1.933   1.933   1.933   1.933   1.933   1.933   1.933   1.933   1.933   1.933   1.933   1.933   1.933   1.933   1.933   1.933   1.933   1.933   1.933   1.933   1.933
     1.00    1.933   1.933   1.933   1.933   1.933   1.933   1.933   1.933   1.933   1.933   1.933   1.933   1.933   1.933   1.933   1.933   1.933   1.933   1.933   1.933   1.933   1.933   1.933   1.933   1.933   1.933   1.933   1.933   1.933   1.933   1.933   1.933   1.933   1.933   1.933   1.933

   Mean standard deviation across all grid points:
      u component:    1.817 m/s
      v component:    1.933 m/s
      w component:    1.933 m/s


U-component (X) statistics from the interpolated hub point:

   Mean =   8.9758 m/s
   TI   =  13.4663 %


Normalizing Parameters for Binary Data (approximate statistics):

   UBar  =   8.9763 m/s
   TI(u) =  16.8477 %
   TI(v) =  21.5387 %
   TI(w) =  21.5387 %

   Height Offset =   0.0000 m
   Grid Base     =   1.0000 m

Creating a PERIODIC output file.


Processing complete.  6.4688 CPU seconds used.
