
This summary file was generated by TurbSim (v2.00.07a-bjj, 14-Jun-2016) on 03-Nov-2023 at 03:21:07.


Runtime Options:

      2401  Random seed #1
    RANLUX  Type of random number generator
         F  Output binary HH turbulence parameters?
         F  Output formatted turbulence parameters?
         F  Output AeroDyn HH files?
         F  Output AeroDyn FF files?
         T  Output BLADED FF files?
         F  Output tower data?
         F  Output formatted FF files?
         F  Output coherent turbulence time step file?
         T  Clockwise rotation when looking downwind?
 0 -  NONE  IEC turbulence models scaled to exact specified standard deviation


Turbine/Model Specifications:

        36  Vertical grid-point matrix dimension
        36  Horizontal grid-point matrix dimension
     0.100  Time step [seconds]
   660.000  Analysis time [seconds]
   660.000  Usable output time [seconds]
   151.000  Hub height [m]
   300.000  Grid height [m]
   300.000  Grid width [m]
     0.000  Vertical flow angle [degrees]
     0.000  Horizontal flow angle [degrees]


Meteorological Boundary Conditions:

    IECVKM  IEC von Karman spectral model
         1  IEC standard: IEC 61400-1 Ed. 3: 2005
         A  IEC turbulence characteristic
       NTM  IEC Normal Turbulence Model
       N/A  IEC Extreme Turbulence Model (ETM) "c" parameter [m/s]
       PL   Wind profile type
   153.000  Reference height [m]
    12.000  Reference wind speed [m/s]
       N/A  Jet height [m]
     0.200  Power law exponent
     0.030  Surface roughness length [m]


Non-IEC Meteorological Boundary Conditions:

       N/A  Site latitude [degrees]
       N/A  Gradient Richardson number
       N/A  Friction or shear velocity [m/s]
       N/A  Mixing layer depth [m]
       N/A  Mean hub u'w' Reynolds stress
       N/A  Mean hub u'v' Reynolds stress
       N/A  Mean hub v'w' Reynolds stress


Spatial Coherence Models:

       IEC  u-component coherence model
      NONE  v-component coherence model
      NONE  w-component coherence model
(   12.000, 0.353E-03)  u-component coherence parameters
                   N/A  v-component coherence parameters
                   N/A  w-component coherence parameters
       N/A  Coherence exponent


You have requested that the following file(s) be generated:

   G:\2023\OpenWECDV1.0.0_x64\BaseLIne\wind\WindL_V_12_seed_2401.wnd (AeroDyn/BLADED full-field wnd file)


Turbulence Simulation Scaling Parameter Summary:

   Turbulence model used                            =  IEC von Karman
   Turbulence characteristic                        =  A
   IEC turbulence type                              =  Normal Turbulence Model
   IEC standard                                     =  IEC 61400-1 Ed. 3: 2005
   Mean wind speed at hub height                    =   11.968 m/s
   Expected value of turbulence intensity at 15 m/s =   16.000%
   Characteristic value of standard deviation       =    2.332 m/s
   Turbulence scale                                 =   42.000 m
   Isotropic integral scale                         =  147.000 m
   Characteristic value of hub turbulence intensity =   19.486%
   Gradient Richardson number                       =    0.000

   Wind profile type                                =  Power law
   Power law exponent                               =    0.200
   Mean shear across rotor disk                     =    0.031 (m/s)/m
   Assumed rotor diameter                           =  300.000 m
   Surface roughness length                         =    0.030 m

   Nyquist frequency of turbulent wind field        =    5.000 Hz

   Number of time steps in the FFT                  =     6600
   Number of time steps output                      =     6600
   Number of points simulated                       =     1297


Mean Flow Angles:

   Vertical   =   0.0 degrees
   Horizontal =   0.0 degrees

Mean Wind Speed Profile:

   Height    Wind Speed   Horizontal Angle  Vertical Angle  U-comp (X)   V-comp (Y)   W-comp (Z)
     (m)        (m/s)         (degrees)       (degrees)       (m/s)        (m/s)        (m/s)   
   ------    ----------   ----------------  --------------  ----------   ----------   ----------
    301.0       13.74            0.00            0.00         13.74         0.00         0.00
    292.4       13.66            0.00            0.00         13.66         0.00         0.00
    283.9       13.58            0.00            0.00         13.58         0.00         0.00
    275.3       13.50            0.00            0.00         13.50         0.00         0.00
    266.7       13.41            0.00            0.00         13.41         0.00         0.00
    258.1       13.32            0.00            0.00         13.32         0.00         0.00
    249.6       13.23            0.00            0.00         13.23         0.00         0.00
    241.0       13.14            0.00            0.00         13.14         0.00         0.00
    232.4       13.05            0.00            0.00         13.05         0.00         0.00
    223.9       12.95            0.00            0.00         12.95         0.00         0.00
    215.3       12.85            0.00            0.00         12.85         0.00         0.00
    206.7       12.74            0.00            0.00         12.74         0.00         0.00
    198.1       12.64            0.00            0.00         12.64         0.00         0.00
    189.6       12.53            0.00            0.00         12.53         0.00         0.00
    181.0       12.41            0.00            0.00         12.41         0.00         0.00
    172.4       12.29            0.00            0.00         12.29         0.00         0.00
    163.9       12.17            0.00            0.00         12.17         0.00         0.00
    155.3       12.04            0.00            0.00         12.04         0.00         0.00
    151.0       11.97            0.00            0.00         11.97         0.00         0.00
    146.7       11.90            0.00            0.00         11.90         0.00         0.00
    138.1       11.76            0.00            0.00         11.76         0.00         0.00
    129.6       11.61            0.00            0.00         11.61         0.00         0.00
    121.0       11.45            0.00            0.00         11.45         0.00         0.00
    112.4       11.28            0.00            0.00         11.28         0.00         0.00
    103.9       11.11            0.00            0.00         11.11         0.00         0.00
     95.3       10.92            0.00            0.00         10.92         0.00         0.00
     86.7       10.71            0.00            0.00         10.71         0.00         0.00
     78.1       10.49            0.00            0.00         10.49         0.00         0.00
     69.6       10.25            0.00            0.00         10.25         0.00         0.00
     61.0        9.98            0.00            0.00          9.98         0.00         0.00
     52.4        9.69            0.00            0.00          9.69         0.00         0.00
     43.9        9.35            0.00            0.00          9.35         0.00         0.00
     35.3        8.95            0.00            0.00          8.95         0.00         0.00
     26.7        8.46            0.00            0.00          8.46         0.00         0.00
     18.1        7.83            0.00            0.00          7.83         0.00         0.00
      9.6        6.89            0.00            0.00          6.89         0.00         0.00
      1.0        4.39            0.00            0.00          4.39         0.00         0.00


Harvested Random Seeds after Generation of the Random Numbers:

    119307688 K 1
            0 K 2


Hub-Height Simulated Turbulence Statistical Summary:

   Type of Wind        Min (m/s)   Mean (m/s)    Max (m/s)  Sigma (m/s)       TI (%)
   ----------------    ---------   ----------    ---------  -----------       ------
   Longitudinal (u)         4.39        11.97        18.29        2.077       17.355
   Lateral (v)             -6.74        -0.00         7.32        2.290       19.130
   Vertical (w)            -6.79        -0.00         7.50        2.290       19.130
   U component              4.39        11.97        18.29        2.077       17.355
   V component             -6.74        -0.00         7.32        2.290       19.130
   W component             -6.79        -0.00         7.50        2.290       19.130
   Horizontal (U&V)         4.56        12.20        18.31        1.997       16.374
   Total                    4.56        12.42        18.38        1.975       15.908

                       Min Reynolds     Mean Reynolds    Max Reynolds    Correlation
   Product             Stress (m/s)^2   Stress (m/s)^2   Stress (m/s)^2  Coefficient
   ----------------    --------------   --------------   --------------  -----------
   u'w'                    -28.189             0.182            28.405         0.038
   u'v'                    -23.678            -0.005            26.078        -0.001
   v'w'                    -20.842            -0.267            24.874        -0.051


   Friction Velocity (Ustar)  =      0.426 m/s
   Maximum Instantaneous TKE  =     34.656 (m/s)^2
   Maximum Instantaneous CTKE =     17.208 (m/s)^2


Grid Point Variance Summary:

   Y-coord -150.00 -141.43 -132.86 -124.29 -115.71 -107.14  -98.57  -90.00  -81.43  -72.86  -64.29  -55.71  -47.14  -38.57  -30.00  -21.43  -12.86   -4.29    4.29   12.86   21.43   30.00   38.57   47.14   55.71   64.29   72.86   81.43   90.00   98.57  107.14  115.71  124.29  132.86  141.43  150.00

   Height   Standard deviation at grid points for the u component:
   301.00    2.220   2.277   2.233   2.127   2.142   2.129   1.972   1.998   2.048   2.074   2.212   2.192   2.118   2.199   2.251   2.084   2.173   2.300   2.195   2.032   2.104   2.185   2.107   2.360   2.551   2.377   2.238   2.257   2.318   2.265   2.261   2.263   2.247   2.305   2.341   2.195
   292.43    2.150   2.269   2.193   2.217   2.298   2.263   2.109   1.938   1.960   2.010   2.041   2.183   2.144   1.990   2.173   2.078   2.185   2.254   2.142   2.204   2.271   2.354   2.271   2.373   2.509   2.349   2.128   2.118   2.285   2.181   2.328   2.119   2.059   2.291   2.251   2.149
   283.86    2.120   2.277   2.263   2.193   2.124   2.237   2.194   1.923   2.046   1.934   2.079   2.142   2.265   2.351   2.328   2.200   2.088   2.234   2.255   2.265   2.362   2.178   2.325   2.395   2.417   2.315   2.106   2.069   2.155   2.173   2.233   2.182   2.242   2.315   2.185   2.238
   275.29    2.369   2.314   2.316   2.214   2.082   2.206   2.094   2.142   2.132   2.276   2.166   2.239   2.344   2.383   2.359   2.081   2.251   2.381   2.259   2.246   2.336   2.207   2.215   2.287   2.353   2.296   2.284   2.143   2.245   2.167   2.346   2.291   2.459   2.287   2.284   2.092
   266.71    2.260   2.404   2.290   2.240   2.373   2.172   2.258   2.252   2.264   2.273   2.345   2.325   2.335   2.251   2.301   2.364   2.362   2.439   2.302   2.258   2.134   2.301   2.263   2.298   2.318   2.416   2.336   2.212   2.248   2.150   2.257   2.462   2.394   2.191   2.227   2.104
   258.14    2.347   2.421   2.347   2.323   2.363   2.344   2.233   2.412   2.426   2.275   2.277   2.332   2.305   2.219   2.170   2.160   2.288   2.192   2.242   2.176   2.210   2.299   2.298   2.484   2.389   2.412   2.309   2.330   2.289   2.370   2.345   2.443   2.220   2.249   2.208   2.152
   249.57    2.355   2.314   2.232   2.327   2.326   2.300   2.464   2.337   2.529   2.438   2.434   2.275   2.360   2.392   2.271   2.265   2.236   2.255   2.301   2.265   2.245   2.327   2.391   2.415   2.368   2.399   2.297   2.385   2.480   2.496   2.515   2.616   2.399   2.402   2.265   2.290
   241.00    2.281   2.313   2.221   2.319   2.248   2.271   2.420   2.458   2.552   2.477   2.429   2.273   2.446   2.534   2.384   2.402   2.388   2.277   2.159   2.265   2.335   2.385   2.294   2.504   2.397   2.362   2.346   2.278   2.450   2.496   2.443   2.504   2.354   2.423   2.332   2.387
   232.43    2.232   2.268   2.201   2.197   2.337   2.343   2.584   2.503   2.565   2.705   2.731   2.437   2.507   2.515   2.469   2.378   2.412   2.367   2.359   2.286   2.262   2.475   2.544   2.556   2.270   2.403   2.215   2.209   2.379   2.405   2.268   2.312   2.431   2.350   2.542   2.341
   223.86    2.252   2.332   2.209   2.315   2.181   2.302   2.459   2.512   2.584   2.551   2.552   2.388   2.377   2.474   2.406   2.351   2.259   2.251   2.313   2.343   2.440   2.436   2.412   2.327   2.260   2.223   2.284   2.395   2.403   2.307   2.382   2.477   2.256   2.327   2.477   2.357
   215.29    2.333   2.147   2.161   2.356   2.286   2.398   2.474   2.497   2.549   2.547   2.602   2.408   2.492   2.457   2.441   2.313   2.340   2.211   2.275   2.315   2.354   2.358   2.348   2.357   2.225   2.322   2.143   2.289   2.327   2.355   2.290   2.302   2.171   2.297   2.240   2.117
   206.71    2.148   2.073   2.330   2.288   2.242   2.290   2.266   2.361   2.451   2.543   2.512   2.519   2.482   2.369   2.330   2.204   2.182   2.116   2.180   2.260   2.281   2.244   2.379   2.301   2.279   2.312   2.311   2.391   2.251   2.193   2.209   2.134   1.889   2.125   2.166   2.140
   198.14    2.280   2.219   2.363   2.287   2.320   2.323   2.511   2.332   2.389   2.377   2.451   2.489   2.440   2.337   2.232   2.228   2.264   2.203   2.271   2.292   2.310   2.275   2.239   2.242   2.262   2.277   2.224   2.257   2.166   2.099   2.178   1.966   1.925   2.059   2.023   2.092
   189.57    2.339   2.332   2.338   2.356   2.274   2.415   2.511   2.389   2.331   2.451   2.275   2.240   2.326   2.247   2.323   2.294   2.197   2.107   2.290   2.349   2.283   2.394   2.256   2.271   2.464   2.333   2.103   2.154   2.217   2.099   2.136   2.011   2.074   2.039   2.001   2.083
   181.00    2.130   2.392   2.372   2.368   2.502   2.401   2.447   2.308   2.325   2.407   2.068   2.348   2.333   2.306   2.402   2.273   2.187   2.271   2.182   2.128   2.323   2.398   2.227   2.175   2.241   2.258   2.288   2.305   2.125   2.184   2.178   2.129   2.046   2.107   2.152   2.103
   172.43    2.153   2.212   2.354   2.460   2.464   2.354   2.312   2.284   2.303   2.398   2.266   2.367   2.288   2.197   2.235   2.292   2.285   2.161   2.202   1.998   2.167   2.374   2.315   2.269   2.215   2.316   2.222   2.266   2.282   2.317   2.284   2.313   2.067   2.085   2.208   2.161
   163.86    2.342   2.329   2.411   2.382   2.443   2.394   2.298   2.340   2.277   2.254   2.164   2.180   2.205   2.128   2.184   2.228   2.288   2.141   2.099   2.193   2.176   2.410   2.259   2.185   2.152   2.230   2.220   2.427   2.260   2.329   2.416   2.516   2.211   2.003   2.266   2.198
   155.29    2.305   2.422   2.295   2.347   2.319   2.272   2.322   2.386   2.290   2.244   2.329   2.120   2.059   2.219   2.039   2.143   2.149   1.987   2.161   2.203   2.173   2.291   2.348   2.268   2.272   2.164   2.326   2.415   2.329   2.281   2.326   2.408   2.324   2.182   2.224   2.236
   146.71    2.330   2.285   2.297   2.300   2.376   2.480   2.421   2.295   2.249   2.149   2.190   2.028   2.097   2.169   2.018   2.154   2.204   2.199   2.127   2.211   2.335   2.331   2.403   2.296   2.395   2.429   2.412   2.251   2.263   2.175   2.219   2.433   2.467   2.372   2.134   2.328
   138.14    2.272   2.348   2.303   2.305   2.322   2.442   2.333   2.284   2.178   2.187   2.010   1.973   2.109   2.043   2.131   2.304   2.272   2.243   2.151   2.219   2.558   2.498   2.628   2.644   2.586   2.592   2.511   2.314   2.373   2.350   2.349   2.383   2.388   2.372   2.286   2.293
   129.57    2.230   2.321   2.307   2.277   2.439   2.431   2.466   2.249   2.250   2.171   2.011   1.995   2.041   1.951   2.089   2.256   2.236   2.173   2.152   2.350   2.415   2.527   2.526   2.559   2.690   2.674   2.369   2.332   2.329   2.358   2.354   2.388   2.349   2.486   2.427   2.404
   121.00    2.328   2.431   2.280   2.462   2.343   2.342   2.353   2.270   2.354   2.206   2.133   2.152   2.085   1.910   2.010   2.232   2.278   2.212   2.188   2.401   2.615   2.602   2.503   2.620   2.649   2.641   2.560   2.559   2.445   2.288   2.243   2.378   2.438   2.598   2.477   2.444
   112.43    2.330   2.577   2.434   2.431   2.243   2.455   2.314   2.247   2.419   2.232   2.185   2.162   2.037   2.160   2.101   2.265   2.282   2.200   2.403   2.440   2.489   2.684   2.605   2.553   2.683   2.526   2.485   2.587   2.569   2.496   2.490   2.368   2.572   2.528   2.357   2.354
   103.86    2.454   2.573   2.522   2.535   2.518   2.440   2.161   2.100   2.261   2.231   2.278   2.308   2.175   2.136   2.085   2.273   2.327   2.318   2.373   2.356   2.542   2.648   2.567   2.757   2.619   2.541   2.478   2.574   2.597   2.560   2.472   2.323   2.373   2.398   2.302   2.236
    95.29    2.441   2.306   2.561   2.537   2.393   2.447   2.352   2.188   2.267   2.078   2.093   2.167   2.001   2.126   2.103   2.176   2.202   2.306   2.416   2.318   2.436   2.443   2.561   2.708   2.628   2.595   2.494   2.544   2.609   2.590   2.439   2.444   2.351   2.162   2.123   2.276
    86.71    2.319   2.325   2.378   2.246   2.337   2.243   2.148   2.200   2.241   2.239   2.161   2.088   2.192   2.208   2.114   2.240   2.320   2.294   2.370   2.451   2.457   2.496   2.443   2.526   2.536   2.371   2.360   2.422   2.431   2.515   2.552   2.496   2.331   2.295   2.211   2.216
    78.14    2.250   2.196   2.235   2.094   2.078   2.182   2.230   2.216   2.238   2.296   2.250   2.124   2.159   2.217   2.180   2.201   2.259   2.333   2.444   2.403   2.320   2.452   2.513   2.396   2.353   2.341   2.374   2.387   2.399   2.393   2.521   2.543   2.491   2.458   2.367   2.358
    69.57    2.102   2.189   2.149   2.079   2.151   2.049   2.030   1.972   2.148   2.249   2.339   2.237   2.221   2.197   2.197   2.161   2.264   2.437   2.539   2.492   2.438   2.324   2.456   2.474   2.427   2.438   2.512   2.592   2.446   2.436   2.359   2.491   2.678   2.555   2.383   2.516
    61.00    2.073   2.096   2.172   2.163   2.133   2.016   1.774   1.970   2.051   2.112   2.124   2.076   2.120   2.202   2.079   2.148   2.158   2.338   2.435   2.515   2.574   2.491   2.460   2.272   2.326   2.398   2.347   2.447   2.386   2.492   2.445   2.448   2.516   2.481   2.485   2.484
    52.43    1.959   2.082   2.114   2.234   2.066   2.080   2.077   1.940   1.979   1.991   2.111   2.052   2.203   2.092   2.010   2.143   2.293   2.319   2.416   2.541   2.590   2.649   2.614   2.454   2.358   2.347   2.352   2.402   2.294   2.509   2.613   2.566   2.480   2.478   2.696   2.572
    43.86    2.020   2.029   2.092   2.260   2.122   2.049   2.146   2.071   1.936   2.049   2.148   1.999   1.983   2.075   2.095   2.044   2.065   2.427   2.327   2.505   2.555   2.536   2.516   2.438   2.691   2.578   2.468   2.380   2.436   2.525   2.532   2.533   2.409   2.390   2.408   2.535
    35.29    2.014   1.956   2.079   2.177   2.122   2.196   2.167   2.109   2.029   2.160   2.112   2.047   1.969   2.045   2.174   2.121   2.179   2.233   2.343   2.540   2.664   2.574   2.496   2.525   2.643   2.523   2.426   2.386   2.429   2.430   2.453   2.319   2.443   2.374   2.329   2.406
    26.71    2.135   2.160   2.067   2.212   2.253   2.258   2.131   2.105   2.108   2.167   2.079   2.038   1.880   1.942   2.216   2.201   2.341   2.278   2.326   2.492   2.722   2.630   2.613   2.567   2.561   2.429   2.440   2.336   2.383   2.423   2.383   2.499   2.408   2.477   2.336   2.366
    18.14    2.208   2.288   2.149   2.363   2.380   1.984   2.075   2.076   2.121   2.120   2.142   2.044   2.094   2.223   2.306   2.415   2.311   2.372   2.549   2.654   2.735   2.619   2.728   2.619   2.513   2.272   2.420   2.438   2.484   2.366   2.414   2.403   2.458   2.234   2.196   2.199
     9.57    2.164   2.281   2.282   2.359   2.280   2.011   2.035   2.013   1.983   2.156   1.952   2.115   2.232   2.334   2.541   2.396   2.317   2.481   2.487   2.668   2.655   2.672   2.675   2.599   2.450   2.378   2.289   2.400   2.365   2.134   2.247   2.313   2.358   2.140   2.115   2.123
     1.00    2.273   2.220   2.393   2.235   2.338   2.242   2.020   2.210   2.147   2.197   2.163   2.162   2.256   2.341   2.530   2.513   2.461   2.569   2.652   2.653   2.872   2.673   2.625   2.613   2.372   2.232   2.313   2.350   2.235   2.154   2.139   2.256   2.226   2.080   2.110   2.242

   Height   Standard deviation at grid points for the v component:
   301.00    2.290   2.290   2.290   2.290   2.290   2.290   2.290   2.290   2.290   2.290   2.290   2.290   2.290   2.290   2.290   2.290   2.290   2.290   2.290   2.290   2.290   2.290   2.290   2.290   2.290   2.290   2.290   2.290   2.290   2.290   2.290   2.290   2.290   2.290   2.290   2.290
   292.43    2.290   2.290   2.290   2.290   2.290   2.290   2.290   2.290   2.290   2.290   2.290   2.290   2.290   2.290   2.290   2.290   2.290   2.290   2.290   2.290   2.290   2.290   2.290   2.290   2.290   2.290   2.290   2.290   2.290   2.290   2.290   2.290   2.290   2.290   2.290   2.290
   283.86    2.290   2.290   2.290   2.290   2.290   2.290   2.290   2.290   2.290   2.290   2.290   2.290   2.290   2.290   2.290   2.290   2.290   2.290   2.290   2.290   2.290   2.290   2.290   2.290   2.290   2.290   2.290   2.290   2.290   2.290   2.290   2.290   2.290   2.290   2.290   2.290
   275.29    2.290   2.290   2.290   2.290   2.290   2.290   2.290   2.290   2.290   2.290   2.290   2.290   2.290   2.290   2.290   2.290   2.290   2.290   2.290   2.290   2.290   2.290   2.290   2.290   2.290   2.290   2.290   2.290   2.290   2.290   2.290   2.290   2.290   2.290   2.290   2.290
   266.71    2.290   2.290   2.290   2.290   2.290   2.290   2.290   2.290   2.290   2.290   2.290   2.290   2.290   2.290   2.290   2.290   2.290   2.290   2.290   2.290   2.290   2.290   2.290   2.290   2.290   2.290   2.290   2.290   2.290   2.290   2.290   2.290   2.290   2.290   2.290   2.290
   258.14    2.290   2.290   2.290   2.290   2.290   2.290   2.290   2.290   2.290   2.290   2.290   2.290   2.290   2.290   2.290   2.290   2.290   2.290   2.290   2.290   2.290   2.290   2.290   2.290   2.290   2.290   2.290   2.290   2.290   2.290   2.290   2.290   2.290   2.290   2.290   2.290
   249.57    2.290   2.290   2.290   2.290   2.290   2.290   2.290   2.290   2.290   2.290   2.290   2.290   2.290   2.290   2.290   2.290   2.290   2.290   2.290   2.290   2.290   2.290   2.290   2.290   2.290   2.290   2.290   2.290   2.290   2.290   2.290   2.290   2.290   2.290   2.290   2.290
   241.00    2.290   2.290   2.290   2.290   2.290   2.290   2.290   2.290   2.290   2.290   2.290   2.290   2.290   2.290   2.290   2.290   2.290   2.290   2.290   2.290   2.290   2.290   2.290   2.290   2.290   2.290   2.290   2.290   2.290   2.290   2.290   2.290   2.290   2.290   2.290   2.290
   232.43    2.290   2.290   2.290   2.290   2.290   2.290   2.290   2.290   2.290   2.290   2.290   2.290   2.290   2.290   2.290   2.290   2.290   2.290   2.290   2.290   2.290   2.290   2.290   2.290   2.290   2.290   2.290   2.290   2.290   2.290   2.290   2.290   2.290   2.290   2.290   2.290
   223.86    2.290   2.290   2.290   2.290   2.290   2.290   2.290   2.290   2.290   2.290   2.290   2.290   2.290   2.290   2.290   2.290   2.290   2.290   2.290   2.290   2.290   2.290   2.290   2.290   2.290   2.290   2.290   2.290   2.290   2.290   2.290   2.290   2.290   2.290   2.290   2.290
   215.29    2.290   2.290   2.290   2.290   2.290   2.290   2.290   2.290   2.290   2.290   2.290   2.290   2.290   2.290   2.290   2.290   2.290   2.290   2.290   2.290   2.290   2.290   2.290   2.290   2.290   2.290   2.290   2.290   2.290   2.290   2.290   2.290   2.290   2.290   2.290   2.290
   206.71    2.290   2.290   2.290   2.290   2.290   2.290   2.290   2.290   2.290   2.290   2.290   2.290   2.290   2.290   2.290   2.290   2.290   2.290   2.290   2.290   2.290   2.290   2.290   2.290   2.290   2.290   2.290   2.290   2.290   2.290   2.290   2.290   2.290   2.290   2.290   2.290
   198.14    2.290   2.290   2.290   2.290   2.290   2.290   2.290   2.290   2.290   2.290   2.290   2.290   2.290   2.290   2.290   2.290   2.290   2.290   2.290   2.290   2.290   2.290   2.290   2.290   2.290   2.290   2.290   2.290   2.290   2.290   2.290   2.290   2.290   2.290   2.290   2.290
   189.57    2.290   2.290   2.290   2.290   2.290   2.290   2.290   2.290   2.290   2.290   2.290   2.290   2.290   2.290   2.290   2.290   2.290   2.290   2.290   2.290   2.290   2.290   2.290   2.290   2.290   2.290   2.290   2.290   2.290   2.290   2.290   2.290   2.290   2.290   2.290   2.290
   181.00    2.290   2.290   2.290   2.290   2.290   2.290   2.290   2.290   2.290   2.290   2.290   2.290   2.290   2.290   2.290   2.290   2.290   2.290   2.290   2.290   2.290   2.290   2.290   2.290   2.290   2.290   2.290   2.290   2.290   2.290   2.290   2.290   2.290   2.290   2.290   2.290
   172.43    2.290   2.290   2.290   2.290   2.290   2.290   2.290   2.290   2.290   2.290   2.290   2.290   2.290   2.290   2.290   2.290   2.290   2.290   2.290   2.290   2.290   2.290   2.290   2.290   2.290   2.290   2.290   2.290   2.290   2.290   2.290   2.290   2.290   2.290   2.290   2.290
   163.86    2.290   2.290   2.290   2.290   2.290   2.290   2.290   2.290   2.290   2.290   2.290   2.290   2.290   2.290   2.290   2.290   2.290   2.290   2.290   2.290   2.290   2.290   2.290   2.290   2.290   2.290   2.290   2.290   2.290   2.290   2.290   2.290   2.290   2.290   2.290   2.290
   155.29    2.290   2.290   2.290   2.290   2.290   2.290   2.290   2.290   2.290   2.290   2.290   2.290   2.290   2.290   2.290   2.290   2.290   2.290   2.290   2.290   2.290   2.290   2.290   2.290   2.290   2.290   2.290   2.290   2.290   2.290   2.290   2.290   2.290   2.290   2.290   2.290
   146.71    2.290   2.290   2.290   2.290   2.290   2.290   2.290   2.290   2.290   2.290   2.290   2.290   2.290   2.290   2.290   2.290   2.290   2.290   2.290   2.290   2.290   2.290   2.290   2.290   2.290   2.290   2.290   2.290   2.290   2.290   2.290   2.290   2.290   2.290   2.290   2.290
   138.14    2.290   2.290   2.290   2.290   2.290   2.290   2.290   2.290   2.290   2.290   2.290   2.290   2.290   2.290   2.290   2.290   2.290   2.290   2.290   2.290   2.290   2.290   2.290   2.290   2.290   2.290   2.290   2.290   2.290   2.290   2.290   2.290   2.290   2.290   2.290   2.290
   129.57    2.290   2.290   2.290   2.290   2.290   2.290   2.290   2.290   2.290   2.290   2.290   2.290   2.290   2.290   2.290   2.290   2.290   2.290   2.290   2.290   2.290   2.290   2.290   2.290   2.290   2.290   2.290   2.290   2.290   2.290   2.290   2.290   2.290   2.290   2.290   2.290
   121.00    2.290   2.290   2.290   2.290   2.290   2.290   2.290   2.290   2.290   2.290   2.290   2.290   2.290   2.290   2.290   2.290   2.290   2.290   2.290   2.290   2.290   2.290   2.290   2.290   2.290   2.290   2.290   2.290   2.290   2.290   2.290   2.290   2.290   2.290   2.290   2.290
   112.43    2.290   2.290   2.290   2.290   2.290   2.290   2.290   2.290   2.290   2.290   2.290   2.290   2.290   2.290   2.290   2.290   2.290   2.290   2.290   2.290   2.290   2.290   2.290   2.290   2.290   2.290   2.290   2.290   2.290   2.290   2.290   2.290   2.290   2.290   2.290   2.290
   103.86    2.290   2.290   2.290   2.290   2.290   2.290   2.290   2.290   2.290   2.290   2.290   2.290   2.290   2.290   2.290   2.290   2.290   2.290   2.290   2.290   2.290   2.290   2.290   2.290   2.290   2.290   2.290   2.290   2.290   2.290   2.290   2.290   2.290   2.290   2.290   2.290
    95.29    2.290   2.290   2.290   2.290   2.290   2.290   2.290   2.290   2.290   2.290   2.290   2.290   2.290   2.290   2.290   2.290   2.290   2.290   2.290   2.290   2.290   2.290   2.290   2.290   2.290   2.290   2.290   2.290   2.290   2.290   2.290   2.290   2.290   2.290   2.290   2.290
    86.71    2.290   2.290   2.290   2.290   2.290   2.290   2.290   2.290   2.290   2.290   2.290   2.290   2.290   2.290   2.290   2.290   2.290   2.290   2.290   2.290   2.290   2.290   2.290   2.290   2.290   2.290   2.290   2.290   2.290   2.290   2.290   2.290   2.290   2.290   2.290   2.290
    78.14    2.290   2.290   2.290   2.290   2.290   2.290   2.290   2.290   2.290   2.290   2.290   2.290   2.290   2.290   2.290   2.290   2.290   2.290   2.290   2.290   2.290   2.290   2.290   2.290   2.290   2.290   2.290   2.290   2.290   2.290   2.290   2.290   2.290   2.290   2.290   2.290
    69.57    2.290   2.290   2.290   2.290   2.290   2.290   2.290   2.290   2.290   2.290   2.290   2.290   2.290   2.290   2.290   2.290   2.290   2.290   2.290   2.290   2.290   2.290   2.290   2.290   2.290   2.290   2.290   2.290   2.290   2.290   2.290   2.290   2.290   2.290   2.290   2.290
    61.00    2.290   2.290   2.290   2.290   2.290   2.290   2.290   2.290   2.290   2.290   2.290   2.290   2.290   2.290   2.290   2.290   2.290   2.290   2.290   2.290   2.290   2.290   2.290   2.290   2.290   2.290   2.290   2.290   2.290   2.290   2.290   2.290   2.290   2.290   2.290   2.290
    52.43    2.290   2.290   2.290   2.290   2.290   2.290   2.290   2.290   2.290   2.290   2.290   2.290   2.290   2.290   2.290   2.290   2.290   2.290   2.290   2.290   2.290   2.290   2.290   2.290   2.290   2.290   2.290   2.290   2.290   2.290   2.290   2.290   2.290   2.290   2.290   2.290
    43.86    2.290   2.290   2.290   2.290   2.290   2.290   2.290   2.290   2.290   2.290   2.290   2.290   2.290   2.290   2.290   2.290   2.290   2.290   2.290   2.290   2.290   2.290   2.290   2.290   2.290   2.290   2.290   2.290   2.290   2.290   2.290   2.290   2.290   2.290   2.290   2.290
    35.29    2.290   2.290   2.290   2.290   2.290   2.290   2.290   2.290   2.290   2.290   2.290   2.290   2.290   2.290   2.290   2.290   2.290   2.290   2.290   2.290   2.290   2.290   2.290   2.290   2.290   2.290   2.290   2.290   2.290   2.290   2.290   2.290   2.290   2.290   2.290   2.290
    26.71    2.290   2.290   2.290   2.290   2.290   2.290   2.290   2.290   2.290   2.290   2.290   2.290   2.290   2.290   2.290   2.290   2.290   2.290   2.290   2.290   2.290   2.290   2.290   2.290   2.290   2.290   2.290   2.290   2.290   2.290   2.290   2.290   2.290   2.290   2.290   2.290
    18.14    2.290   2.290   2.290   2.290   2.290   2.290   2.290   2.290   2.290   2.290   2.290   2.290   2.290   2.290   2.290   2.290   2.290   2.290   2.290   2.290   2.290   2.290   2.290   2.290   2.290   2.290   2.290   2.290   2.290   2.290   2.290   2.290   2.290   2.290   2.290   2.290
     9.57    2.290   2.290   2.290   2.290   2.290   2.290   2.290   2.290   2.290   2.290   2.290   2.290   2.290   2.290   2.290   2.290   2.290   2.290   2.290   2.290   2.290   2.290   2.290   2.290   2.290   2.290   2.290   2.290   2.290   2.290   2.290   2.290   2.290   2.290   2.290   2.290
     1.00    2.290   2.290   2.290   2.290   2.290   2.290   2.290   2.290   2.290   2.290   2.290   2.290   2.290   2.290   2.290   2.290   2.290   2.290   2.290   2.290   2.290   2.290   2.290   2.290   2.290   2.290   2.290   2.290   2.290   2.290   2.290   2.290   2.290   2.290   2.290   2.290

   Height   Standard deviation at grid points for the w component:
   301.00    2.290   2.290   2.290   2.290   2.290   2.290   2.290   2.290   2.290   2.290   2.290   2.290   2.290   2.290   2.290   2.290   2.290   2.290   2.290   2.290   2.290   2.290   2.290   2.290   2.290   2.290   2.290   2.290   2.290   2.290   2.290   2.290   2.290   2.290   2.290   2.290
   292.43    2.290   2.290   2.290   2.290   2.290   2.290   2.290   2.290   2.290   2.290   2.290   2.290   2.290   2.290   2.290   2.290   2.290   2.290   2.290   2.290   2.290   2.290   2.290   2.290   2.290   2.290   2.290   2.290   2.290   2.290   2.290   2.290   2.290   2.290   2.290   2.290
   283.86    2.290   2.290   2.290   2.290   2.290   2.290   2.290   2.290   2.290   2.290   2.290   2.290   2.290   2.290   2.290   2.290   2.290   2.290   2.290   2.290   2.290   2.290   2.290   2.290   2.290   2.290   2.290   2.290   2.290   2.290   2.290   2.290   2.290   2.290   2.290   2.290
   275.29    2.290   2.290   2.290   2.290   2.290   2.290   2.290   2.290   2.290   2.290   2.290   2.290   2.290   2.290   2.290   2.290   2.290   2.290   2.290   2.290   2.290   2.290   2.290   2.290   2.290   2.290   2.290   2.290   2.290   2.290   2.290   2.290   2.290   2.290   2.290   2.290
   266.71    2.290   2.290   2.290   2.290   2.290   2.290   2.290   2.290   2.290   2.290   2.290   2.290   2.290   2.290   2.290   2.290   2.290   2.290   2.290   2.290   2.290   2.290   2.290   2.290   2.290   2.290   2.290   2.290   2.290   2.290   2.290   2.290   2.290   2.290   2.290   2.290
   258.14    2.290   2.290   2.290   2.290   2.290   2.290   2.290   2.290   2.290   2.290   2.290   2.290   2.290   2.290   2.290   2.290   2.290   2.290   2.290   2.290   2.290   2.290   2.290   2.290   2.290   2.290   2.290   2.290   2.290   2.290   2.290   2.290   2.290   2.290   2.290   2.290
   249.57    2.290   2.290   2.290   2.290   2.290   2.290   2.290   2.290   2.290   2.290   2.290   2.290   2.290   2.290   2.290   2.290   2.290   2.290   2.290   2.290   2.290   2.290   2.290   2.290   2.290   2.290   2.290   2.290   2.290   2.290   2.290   2.290   2.290   2.290   2.290   2.290
   241.00    2.290   2.290   2.290   2.290   2.290   2.290   2.290   2.290   2.290   2.290   2.290   2.290   2.290   2.290   2.290   2.290   2.290   2.290   2.290   2.290   2.290   2.290   2.290   2.290   2.290   2.290   2.290   2.290   2.290   2.290   2.290   2.290   2.290   2.290   2.290   2.290
   232.43    2.290   2.290   2.290   2.290   2.290   2.290   2.290   2.290   2.290   2.290   2.290   2.290   2.290   2.290   2.290   2.290   2.290   2.290   2.290   2.290   2.290   2.290   2.290   2.290   2.290   2.290   2.290   2.290   2.290   2.290   2.290   2.290   2.290   2.290   2.290   2.290
   223.86    2.290   2.290   2.290   2.290   2.290   2.290   2.290   2.290   2.290   2.290   2.290   2.290   2.290   2.290   2.290   2.290   2.290   2.290   2.290   2.290   2.290   2.290   2.290   2.290   2.290   2.290   2.290   2.290   2.290   2.290   2.290   2.290   2.290   2.290   2.290   2.290
   215.29    2.290   2.290   2.290   2.290   2.290   2.290   2.290   2.290   2.290   2.290   2.290   2.290   2.290   2.290   2.290   2.290   2.290   2.290   2.290   2.290   2.290   2.290   2.290   2.290   2.290   2.290   2.290   2.290   2.290   2.290   2.290   2.290   2.290   2.290   2.290   2.290
   206.71    2.290   2.290   2.290   2.290   2.290   2.290   2.290   2.290   2.290   2.290   2.290   2.290   2.290   2.290   2.290   2.290   2.290   2.290   2.290   2.290   2.290   2.290   2.290   2.290   2.290   2.290   2.290   2.290   2.290   2.290   2.290   2.290   2.290   2.290   2.290   2.290
   198.14    2.290   2.290   2.290   2.290   2.290   2.290   2.290   2.290   2.290   2.290   2.290   2.290   2.290   2.290   2.290   2.290   2.290   2.290   2.290   2.290   2.290   2.290   2.290   2.290   2.290   2.290   2.290   2.290   2.290   2.290   2.290   2.290   2.290   2.290   2.290   2.290
   189.57    2.290   2.290   2.290   2.290   2.290   2.290   2.290   2.290   2.290   2.290   2.290   2.290   2.290   2.290   2.290   2.290   2.290   2.290   2.290   2.290   2.290   2.290   2.290   2.290   2.290   2.290   2.290   2.290   2.290   2.290   2.290   2.290   2.290   2.290   2.290   2.290
   181.00    2.290   2.290   2.290   2.290   2.290   2.290   2.290   2.290   2.290   2.290   2.290   2.290   2.290   2.290   2.290   2.290   2.290   2.290   2.290   2.290   2.290   2.290   2.290   2.290   2.290   2.290   2.290   2.290   2.290   2.290   2.290   2.290   2.290   2.290   2.290   2.290
   172.43    2.290   2.290   2.290   2.290   2.290   2.290   2.290   2.290   2.290   2.290   2.290   2.290   2.290   2.290   2.290   2.290   2.290   2.290   2.290   2.290   2.290   2.290   2.290   2.290   2.290   2.290   2.290   2.290   2.290   2.290   2.290   2.290   2.290   2.290   2.290   2.290
   163.86    2.290   2.290   2.290   2.290   2.290   2.290   2.290   2.290   2.290   2.290   2.290   2.290   2.290   2.290   2.290   2.290   2.290   2.290   2.290   2.290   2.290   2.290   2.290   2.290   2.290   2.290   2.290   2.290   2.290   2.290   2.290   2.290   2.290   2.290   2.290   2.290
   155.29    2.290   2.290   2.290   2.290   2.290   2.290   2.290   2.290   2.290   2.290   2.290   2.290   2.290   2.290   2.290   2.290   2.290   2.290   2.290   2.290   2.290   2.290   2.290   2.290   2.290   2.290   2.290   2.290   2.290   2.290   2.290   2.290   2.290   2.290   2.290   2.290
   146.71    2.290   2.290   2.290   2.290   2.290   2.290   2.290   2.290   2.290   2.290   2.290   2.290   2.290   2.290   2.290   2.290   2.290   2.290   2.290   2.290   2.290   2.290   2.290   2.290   2.290   2.290   2.290   2.290   2.290   2.290   2.290   2.290   2.290   2.290   2.290   2.290
   138.14    2.290   2.290   2.290   2.290   2.290   2.290   2.290   2.290   2.290   2.290   2.290   2.290   2.290   2.290   2.290   2.290   2.290   2.290   2.290   2.290   2.290   2.290   2.290   2.290   2.290   2.290   2.290   2.290   2.290   2.290   2.290   2.290   2.290   2.290   2.290   2.290
   129.57    2.290   2.290   2.290   2.290   2.290   2.290   2.290   2.290   2.290   2.290   2.290   2.290   2.290   2.290   2.290   2.290   2.290   2.290   2.290   2.290   2.290   2.290   2.290   2.290   2.290   2.290   2.290   2.290   2.290   2.290   2.290   2.290   2.290   2.290   2.290   2.290
   121.00    2.290   2.290   2.290   2.290   2.290   2.290   2.290   2.290   2.290   2.290   2.290   2.290   2.290   2.290   2.290   2.290   2.290   2.290   2.290   2.290   2.290   2.290   2.290   2.290   2.290   2.290   2.290   2.290   2.290   2.290   2.290   2.290   2.290   2.290   2.290   2.290
   112.43    2.290   2.290   2.290   2.290   2.290   2.290   2.290   2.290   2.290   2.290   2.290   2.290   2.290   2.290   2.290   2.290   2.290   2.290   2.290   2.290   2.290   2.290   2.290   2.290   2.290   2.290   2.290   2.290   2.290   2.290   2.290   2.290   2.290   2.290   2.290   2.290
   103.86    2.290   2.290   2.290   2.290   2.290   2.290   2.290   2.290   2.290   2.290   2.290   2.290   2.290   2.290   2.290   2.290   2.290   2.290   2.290   2.290   2.290   2.290   2.290   2.290   2.290   2.290   2.290   2.290   2.290   2.290   2.290   2.290   2.290   2.290   2.290   2.290
    95.29    2.290   2.290   2.290   2.290   2.290   2.290   2.290   2.290   2.290   2.290   2.290   2.290   2.290   2.290   2.290   2.290   2.290   2.290   2.290   2.290   2.290   2.290   2.290   2.290   2.290   2.290   2.290   2.290   2.290   2.290   2.290   2.290   2.290   2.290   2.290   2.290
    86.71    2.290   2.290   2.290   2.290   2.290   2.290   2.290   2.290   2.290   2.290   2.290   2.290   2.290   2.290   2.290   2.290   2.290   2.290   2.290   2.290   2.290   2.290   2.290   2.290   2.290   2.290   2.290   2.290   2.290   2.290   2.290   2.290   2.290   2.290   2.290   2.290
    78.14    2.290   2.290   2.290   2.290   2.290   2.290   2.290   2.290   2.290   2.290   2.290   2.290   2.290   2.290   2.290   2.290   2.290   2.290   2.290   2.290   2.290   2.290   2.290   2.290   2.290   2.290   2.290   2.290   2.290   2.290   2.290   2.290   2.290   2.290   2.290   2.290
    69.57    2.290   2.290   2.290   2.290   2.290   2.290   2.290   2.290   2.290   2.290   2.290   2.290   2.290   2.290   2.290   2.290   2.290   2.290   2.290   2.290   2.290   2.290   2.290   2.290   2.290   2.290   2.290   2.290   2.290   2.290   2.290   2.290   2.290   2.290   2.290   2.290
    61.00    2.290   2.290   2.290   2.290   2.290   2.290   2.290   2.290   2.290   2.290   2.290   2.290   2.290   2.290   2.290   2.290   2.290   2.290   2.290   2.290   2.290   2.290   2.290   2.290   2.290   2.290   2.290   2.290   2.290   2.290   2.290   2.290   2.290   2.290   2.290   2.290
    52.43    2.290   2.290   2.290   2.290   2.290   2.290   2.290   2.290   2.290   2.290   2.290   2.290   2.290   2.290   2.290   2.290   2.290   2.290   2.290   2.290   2.290   2.290   2.290   2.290   2.290   2.290   2.290   2.290   2.290   2.290   2.290   2.290   2.290   2.290   2.290   2.290
    43.86    2.290   2.290   2.290   2.290   2.290   2.290   2.290   2.290   2.290   2.290   2.290   2.290   2.290   2.290   2.290   2.290   2.290   2.290   2.290   2.290   2.290   2.290   2.290   2.290   2.290   2.290   2.290   2.290   2.290   2.290   2.290   2.290   2.290   2.290   2.290   2.290
    35.29    2.290   2.290   2.290   2.290   2.290   2.290   2.290   2.290   2.290   2.290   2.290   2.290   2.290   2.290   2.290   2.290   2.290   2.290   2.290   2.290   2.290   2.290   2.290   2.290   2.290   2.290   2.290   2.290   2.290   2.290   2.290   2.290   2.290   2.290   2.290   2.290
    26.71    2.290   2.290   2.290   2.290   2.290   2.290   2.290   2.290   2.290   2.290   2.290   2.290   2.290   2.290   2.290   2.290   2.290   2.290   2.290   2.290   2.290   2.290   2.290   2.290   2.290   2.290   2.290   2.290   2.290   2.290   2.290   2.290   2.290   2.290   2.290   2.290
    18.14    2.290   2.290   2.290   2.290   2.290   2.290   2.290   2.290   2.290   2.290   2.290   2.290   2.290   2.290   2.290   2.290   2.290   2.290   2.290   2.290   2.290   2.290   2.290   2.290   2.290   2.290   2.290   2.290   2.290   2.290   2.290   2.290   2.290   2.290   2.290   2.290
     9.57    2.290   2.290   2.290   2.290   2.290   2.290   2.290   2.290   2.290   2.290   2.290   2.290   2.290   2.290   2.290   2.290   2.290   2.290   2.290   2.290   2.290   2.290   2.290   2.290   2.290   2.290   2.290   2.290   2.290   2.290   2.290   2.290   2.290   2.290   2.290   2.290
     1.00    2.290   2.290   2.290   2.290   2.290   2.290   2.290   2.290   2.290   2.290   2.290   2.290   2.290   2.290   2.290   2.290   2.290   2.290   2.290   2.290   2.290   2.290   2.290   2.290   2.290   2.290   2.290   2.290   2.290   2.290   2.290   2.290   2.290   2.290   2.290   2.290

   Mean standard deviation across all grid points:
      u component:    2.303 m/s
      v component:    2.290 m/s
      w component:    2.290 m/s


U-component (X) statistics from the interpolated hub point:

   Mean =  11.9677 m/s
   TI   =  15.4986 %


Normalizing Parameters for Binary Data (approximate statistics):

   UBar  =  11.9685 m/s
   TI(u) =  17.3551 %
   TI(v) =  19.1297 %
   TI(w) =  19.1297 %

   Height Offset =   0.0000 m
   Grid Base     =   1.0000 m

Creating a PERIODIC output file.


Processing complete.  117.39 CPU seconds used.
