
This summary file was generated by TurbSim (v2.00.07a-bjj, 14-Jun-2016) on 03-Nov-2023 at 03:24:15.


Runtime Options:

      5001  Random seed #1
    RANLUX  Type of random number generator
         F  Output binary HH turbulence parameters?
         F  Output formatted turbulence parameters?
         F  Output AeroDyn HH files?
         F  Output AeroDyn FF files?
         T  Output BLADED FF files?
         F  Output tower data?
         F  Output formatted FF files?
         F  Output coherent turbulence time step file?
         T  Clockwise rotation when looking downwind?
 0 -  NONE  IEC turbulence models scaled to exact specified standard deviation


Turbine/Model Specifications:

        36  Vertical grid-point matrix dimension
        36  Horizontal grid-point matrix dimension
     0.100  Time step [seconds]
   660.000  Analysis time [seconds]
   660.000  Usable output time [seconds]
   151.000  Hub height [m]
   300.000  Grid height [m]
   300.000  Grid width [m]
     0.000  Vertical flow angle [degrees]
     0.000  Horizontal flow angle [degrees]


Meteorological Boundary Conditions:

    IECVKM  IEC von Karman spectral model
         1  IEC standard: IEC 61400-1 Ed. 3: 2005
         A  IEC turbulence characteristic
       NTM  IEC Normal Turbulence Model
       N/A  IEC Extreme Turbulence Model (ETM) "c" parameter [m/s]
       PL   Wind profile type
   153.000  Reference height [m]
    21.000  Reference wind speed [m/s]
       N/A  Jet height [m]
     0.200  Power law exponent
     0.030  Surface roughness length [m]


Non-IEC Meteorological Boundary Conditions:

       N/A  Site latitude [degrees]
       N/A  Gradient Richardson number
       N/A  Friction or shear velocity [m/s]
       N/A  Mixing layer depth [m]
       N/A  Mean hub u'w' Reynolds stress
       N/A  Mean hub u'v' Reynolds stress
       N/A  Mean hub v'w' Reynolds stress


Spatial Coherence Models:

       IEC  u-component coherence model
      NONE  v-component coherence model
      NONE  w-component coherence model
(   12.000, 0.353E-03)  u-component coherence parameters
                   N/A  v-component coherence parameters
                   N/A  w-component coherence parameters
       N/A  Coherence exponent


You have requested that the following file(s) be generated:

   G:\2023\OpenWECDV1.0.0_x64\BaseLIne\wind\WindL_V_21_seed_5001.wnd (AeroDyn/BLADED full-field wnd file)


Turbulence Simulation Scaling Parameter Summary:

   Turbulence model used                            =  IEC von Karman
   Turbulence characteristic                        =  A
   IEC turbulence type                              =  Normal Turbulence Model
   IEC standard                                     =  IEC 61400-1 Ed. 3: 2005
   Mean wind speed at hub height                    =   20.945 m/s
   Expected value of turbulence intensity at 15 m/s =   16.000%
   Characteristic value of standard deviation       =    3.409 m/s
   Turbulence scale                                 =   42.000 m
   Isotropic integral scale                         =  147.000 m
   Characteristic value of hub turbulence intensity =   16.278%
   Gradient Richardson number                       =    0.000

   Wind profile type                                =  Power law
   Power law exponent                               =    0.200
   Mean shear across rotor disk                     =    0.055 (m/s)/m
   Assumed rotor diameter                           =  300.000 m
   Surface roughness length                         =    0.030 m

   Nyquist frequency of turbulent wind field        =    5.000 Hz

   Number of time steps in the FFT                  =     6600
   Number of time steps output                      =     6600
   Number of points simulated                       =     1297


Mean Flow Angles:

   Vertical   =   0.0 degrees
   Horizontal =   0.0 degrees

Mean Wind Speed Profile:

   Height    Wind Speed   Horizontal Angle  Vertical Angle  U-comp (X)   V-comp (Y)   W-comp (Z)
     (m)        (m/s)         (degrees)       (degrees)       (m/s)        (m/s)        (m/s)   
   ------    ----------   ----------------  --------------  ----------   ----------   ----------
    301.0       24.04            0.00            0.00         24.04         0.00         0.00
    292.4       23.90            0.00            0.00         23.90         0.00         0.00
    283.9       23.76            0.00            0.00         23.76         0.00         0.00
    275.3       23.62            0.00            0.00         23.62         0.00         0.00
    266.7       23.47            0.00            0.00         23.47         0.00         0.00
    258.1       23.32            0.00            0.00         23.32         0.00         0.00
    249.6       23.16            0.00            0.00         23.16         0.00         0.00
    241.0       23.00            0.00            0.00         23.00         0.00         0.00
    232.4       22.83            0.00            0.00         22.83         0.00         0.00
    223.9       22.66            0.00            0.00         22.66         0.00         0.00
    215.3       22.48            0.00            0.00         22.48         0.00         0.00
    206.7       22.30            0.00            0.00         22.30         0.00         0.00
    198.1       22.11            0.00            0.00         22.11         0.00         0.00
    189.6       21.92            0.00            0.00         21.92         0.00         0.00
    181.0       21.72            0.00            0.00         21.72         0.00         0.00
    172.4       21.51            0.00            0.00         21.51         0.00         0.00
    163.9       21.29            0.00            0.00         21.29         0.00         0.00
    155.3       21.06            0.00            0.00         21.06         0.00         0.00
    151.0       20.94            0.00            0.00         20.94         0.00         0.00
    146.7       20.82            0.00            0.00         20.82         0.00         0.00
    138.1       20.58            0.00            0.00         20.58         0.00         0.00
    129.6       20.31            0.00            0.00         20.31         0.00         0.00
    121.0       20.04            0.00            0.00         20.04         0.00         0.00
    112.4       19.74            0.00            0.00         19.74         0.00         0.00
    103.9       19.43            0.00            0.00         19.43         0.00         0.00
     95.3       19.10            0.00            0.00         19.10         0.00         0.00
     86.7       18.75            0.00            0.00         18.75         0.00         0.00
     78.1       18.36            0.00            0.00         18.36         0.00         0.00
     69.6       17.94            0.00            0.00         17.94         0.00         0.00
     61.0       17.47            0.00            0.00         17.47         0.00         0.00
     52.4       16.95            0.00            0.00         16.95         0.00         0.00
     43.9       16.36            0.00            0.00         16.36         0.00         0.00
     35.3       15.66            0.00            0.00         15.66         0.00         0.00
     26.7       14.81            0.00            0.00         14.81         0.00         0.00
     18.1       13.71            0.00            0.00         13.71         0.00         0.00
      9.6       12.06            0.00            0.00         12.06         0.00         0.00
      1.0        7.68            0.00            0.00          7.68         0.00         0.00


Harvested Random Seeds after Generation of the Random Numbers:

    119307688 K 1
            0 K 2


Hub-Height Simulated Turbulence Statistical Summary:

   Type of Wind        Min (m/s)   Mean (m/s)    Max (m/s)  Sigma (m/s)       TI (%)
   ----------------    ---------   ----------    ---------  -----------       ------
   Longitudinal (u)        10.61        20.94        31.77        3.165       15.111
   Lateral (v)            -11.38        -0.00        10.45        3.349       15.991
   Vertical (w)           -11.07        -0.00        10.83        3.349       15.991
   U component             10.61        20.94        31.77        3.165       15.111
   V component            -11.38        -0.00        10.45        3.349       15.991
   W component            -11.07        -0.00        10.83        3.349       15.991
   Horizontal (U&V)        10.95        21.21        31.77        3.183       15.008
   Total                   11.00        21.48        31.94        3.142       14.632

                       Min Reynolds     Mean Reynolds    Max Reynolds    Correlation
   Product             Stress (m/s)^2   Stress (m/s)^2   Stress (m/s)^2  Coefficient
   ----------------    --------------   --------------   --------------  -----------
   u'w'                    -55.872             0.768            71.549         0.072
   u'v'                    -56.371             0.275            56.746         0.026
   v'w'                    -51.841             2.596            57.259         0.231


   Friction Velocity (Ustar)  =      0.876 m/s
   Maximum Instantaneous TKE  =     81.908 (m/s)^2
   Maximum Instantaneous CTKE =     38.097 (m/s)^2


Grid Point Variance Summary:

   Y-coord -150.00 -141.43 -132.86 -124.29 -115.71 -107.14  -98.57  -90.00  -81.43  -72.86  -64.29  -55.71  -47.14  -38.57  -30.00  -21.43  -12.86   -4.29    4.29   12.86   21.43   30.00   38.57   47.14   55.71   64.29   72.86   81.43   90.00   98.57  107.14  115.71  124.29  132.86  141.43  150.00

   Height   Standard deviation at grid points for the u component:
   301.00    3.648   3.409   3.610   3.647   3.521   3.442   3.384   3.395   3.526   3.562   3.676   3.607   3.457   3.502   3.426   3.397   3.407   3.521   3.385   3.507   3.706   3.752   3.775   3.704   3.868   3.892   3.955   4.040   4.061   4.043   3.835   3.794   3.541   3.565   3.545   3.660
   292.43    3.766   3.591   3.515   3.549   3.400   3.416   3.381   3.287   3.429   3.577   3.650   3.439   3.445   3.534   3.502   3.401   3.558   3.545   3.495   3.750   3.759   3.882   3.969   3.773   3.901   4.107   4.096   4.062   4.072   3.934   3.955   3.874   3.665   3.535   3.583   3.694
   283.86    3.701   3.559   3.524   3.242   3.210   3.436   3.355   3.368   3.462   3.487   3.436   3.319   3.475   3.321   3.299   3.384   3.531   3.602   3.609   3.804   3.824   3.877   3.957   3.823   3.986   4.073   4.169   4.126   3.958   3.889   3.825   3.819   3.786   3.747   3.674   3.550
   275.29    3.382   3.360   3.311   3.299   3.459   3.593   3.561   3.555   3.549   3.448   3.435   3.411   3.344   3.369   3.329   3.281   3.363   3.503   3.577   3.606   3.775   3.796   3.794   3.890   3.949   3.940   4.173   3.967   3.920   3.870   3.902   3.764   3.786   3.827   3.784   3.682
   266.71    3.300   3.192   3.348   3.371   3.498   3.661   3.581   3.481   3.519   3.555   3.400   3.375   3.581   3.593   3.385   3.290   3.359   3.285   3.414   3.655   3.737   3.711   3.673   3.991   3.863   3.854   3.792   3.716   3.809   3.797   3.662   3.687   3.903   3.842   3.790   3.749
   258.14    3.360   3.308   3.446   3.554   3.555   3.642   3.482   3.292   3.353   3.388   3.387   3.417   3.513   3.551   3.276   3.288   3.232   3.240   3.456   3.619   3.726   3.889   3.815   3.998   3.837   3.752   3.662   3.641   3.842   3.706   3.666   3.712   3.788   3.659   3.623   3.742
   249.57    3.550   3.628   3.524   3.596   3.751   3.808   3.463   3.306   3.458   3.396   3.440   3.572   3.640   3.608   3.427   3.333   3.261   3.157   3.397   3.384   3.754   3.684   3.867   3.954   3.843   3.735   3.593   3.579   3.804   3.959   3.825   3.819   3.790   3.573   3.532   3.606
   241.00    3.738   3.503   3.578   3.574   3.574   3.685   3.532   3.526   3.657   3.583   3.430   3.617   3.677   3.577   3.624   3.447   3.226   3.340   3.399   3.442   3.686   3.598   3.871   3.775   3.908   3.713   3.718   3.860   3.885   3.831   3.743   3.698   3.684   3.499   3.546   3.723
   232.43    3.659   3.508   3.406   3.456   3.554   3.658   3.714   3.610   3.594   3.606   3.575   3.660   3.720   3.497   3.602   3.420   3.322   3.463   3.424   3.514   3.650   3.772   3.754   3.577   3.666   3.598   3.711   3.705   3.873   3.757   3.826   3.703   3.662   3.516   3.585   3.605
   223.86    3.837   3.647   3.412   3.299   3.613   3.721   3.606   3.446   3.545   3.420   3.442   3.486   3.498   3.633   3.726   3.457   3.459   3.355   3.387   3.373   3.657   3.700   3.859   3.613   3.420   3.485   3.741   3.786   3.876   3.903   3.850   3.577   3.478   3.480   3.519   3.667
   215.29    3.827   3.799   3.494   3.383   3.714   3.777   3.626   3.546   3.473   3.429   3.304   3.368   3.426   3.463   3.570   3.359   3.393   3.372   3.371   3.410   3.598   3.633   3.658   3.643   3.635   3.671   3.766   3.777   3.720   3.923   3.869   3.585   3.721   3.567   3.652   3.603
   206.71    3.723   3.767   3.657   3.546   3.505   3.598   3.636   3.626   3.476   3.402   3.379   3.321   3.226   3.284   3.237   3.339   3.254   3.325   3.224   3.329   3.368   3.464   3.678   3.640   3.541   3.621   3.727   3.834   3.753   3.721   3.822   3.715   3.882   3.733   3.834   3.791
   198.14    3.671   3.681   3.694   3.673   3.555   3.408   3.453   3.407   3.202   3.277   3.377   3.403   3.215   3.266   3.196   3.302   3.363   3.228   3.104   3.222   3.108   3.391   3.515   3.395   3.368   3.684   3.803   3.860   3.872   3.791   3.820   3.966   3.817   3.935   3.969   3.772
   189.57    3.617   3.620   3.479   3.502   3.422   3.228   3.335   3.358   3.308   3.374   3.376   3.245   3.182   3.355   3.268   3.338   3.196   3.136   3.165   3.129   3.476   3.469   3.451   3.320   3.344   3.553   3.579   3.564   3.666   3.617   3.690   3.778   3.830   3.894   4.008   3.891
   181.00    3.487   3.404   3.494   3.513   3.265   3.282   3.352   3.395   3.344   3.357   3.479   3.268   3.215   3.319   3.260   3.243   3.151   3.099   3.172   3.243   3.543   3.410   3.360   3.306   3.423   3.330   3.464   3.550   3.483   3.492   3.420   3.635   3.888   3.903   4.044   3.962
   172.43    3.343   3.398   3.347   3.295   3.268   3.226   3.290   3.348   3.302   3.366   3.418   3.181   3.161   3.299   3.071   3.176   3.026   3.193   3.210   3.208   3.400   3.472   3.438   3.401   3.533   3.441   3.454   3.356   3.402   3.489   3.456   3.743   3.715   3.585   3.835   3.894
   163.86    3.356   3.338   3.328   3.244   3.382   3.245   3.309   3.262   3.192   3.307   3.588   3.327   3.289   3.275   3.156   3.269   3.084   3.188   3.138   3.153   3.307   3.412   3.338   3.338   3.306   3.366   3.335   3.367   3.439   3.634   3.570   3.669   3.695   3.509   3.611   3.825
   155.29    3.457   3.521   3.404   3.474   3.332   3.364   3.394   3.201   3.290   3.374   3.491   3.508   3.342   3.185   3.325   3.181   3.167   3.037   3.218   3.372   3.399   3.346   3.354   3.244   3.299   3.370   3.387   3.370   3.241   3.382   3.428   3.369   3.624   3.433   3.445   3.679
   146.71    3.442   3.389   3.368   3.351   3.316   3.437   3.370   3.245   3.397   3.348   3.388   3.252   3.302   3.267   3.342   3.253   3.319   3.229   3.184   3.373   3.266   3.106   3.233   3.046   3.376   3.362   3.374   3.237   3.222   3.390   3.456   3.354   3.399   3.387   3.601   3.560
   138.14    3.442   3.312   3.399   3.377   3.277   3.481   3.400   3.244   3.208   3.182   3.449   3.410   3.313   3.301   3.222   3.245   3.173   3.240   3.339   3.303   3.301   3.312   3.266   3.294   3.290   3.251   3.251   3.217   3.121   3.178   3.336   3.436   3.366   3.327   3.329   3.560
   129.57    3.574   3.434   3.318   3.260   3.145   3.374   3.369   3.108   3.194   3.370   3.542   3.469   3.260   3.175   3.157   3.239   3.317   3.409   3.538   3.299   3.251   3.357   3.220   3.475   3.293   3.097   3.219   3.118   3.359   3.462   3.380   3.505   3.326   3.380   3.400   3.517
   121.00    3.378   3.288   3.251   3.320   3.246   3.315   3.330   3.241   3.359   3.441   3.419   3.228   3.268   3.272   3.193   3.326   3.331   3.443   3.421   3.471   3.527   3.413   3.297   3.391   3.205   3.199   3.305   3.412   3.497   3.694   3.706   3.593   3.566   3.494   3.435   3.618
   112.43    3.212   3.162   3.260   3.276   3.179   3.168   3.172   3.242   3.402   3.553   3.366   3.145   3.221   3.181   3.368   3.227   3.226   3.242   3.435   3.558   3.570   3.507   3.354   3.249   3.437   3.421   3.296   3.365   3.537   3.660   3.809   3.712   3.520   3.520   3.419   3.617
   103.86    3.191   3.277   3.204   3.284   3.300   3.340   3.365   3.422   3.264   3.478   3.465   3.369   3.182   3.290   3.296   3.246   3.277   3.358   3.495   3.612   3.594   3.530   3.616   3.485   3.500   3.325   3.498   3.421   3.423   3.673   3.702   3.565   3.460   3.451   3.469   3.471
    95.29    3.306   3.213   3.171   3.031   3.238   3.382   3.365   3.282   3.347   3.415   3.447   3.381   3.280   3.286   3.180   3.300   3.419   3.518   3.448   3.355   3.363   3.588   3.724   3.885   3.670   3.637   3.420   3.578   3.407   3.652   3.592   3.556   3.593   3.589   3.388   3.359
    86.71    3.180   3.084   3.109   3.113   3.334   3.448   3.372   3.345   3.445   3.318   3.216   3.123   3.153   3.131   3.284   3.396   3.404   3.506   3.414   3.394   3.584   3.670   3.770   3.893   3.790   3.776   3.575   3.577   3.532   3.400   3.387   3.374   3.245   3.341   3.336   3.235
    78.14    3.324   3.098   3.182   3.194   3.192   3.378   3.405   3.312   3.431   3.158   3.237   3.224   3.198   3.338   3.211   3.330   3.610   3.505   3.417   3.443   3.518   3.504   3.610   3.771   3.683   3.745   3.631   3.499   3.445   3.253   3.271   3.506   3.360   3.392   3.427   3.597
    69.57    3.108   3.144   3.085   3.248   3.410   3.489   3.375   3.323   3.303   3.170   3.043   3.098   3.158   3.267   3.345   3.341   3.412   3.328   3.321   3.466   3.536   3.683   3.684   3.724   3.618   3.773   3.745   3.676   3.699   3.464   3.399   3.409   3.471   3.554   3.585   3.568
    61.00    3.156   3.081   3.123   3.230   3.246   3.473   3.307   3.252   3.300   3.308   3.201   3.236   3.192   3.347   3.358   3.357   3.229   3.339   3.424   3.373   3.416   3.638   3.664   3.720   3.675   3.704   3.783   3.632   3.530   3.418   3.525   3.389   3.372   3.438   3.332   3.670
    52.43    3.173   3.102   3.133   3.137   3.182   3.385   3.513   3.451   3.164   3.111   3.299   3.293   3.275   3.296   3.335   3.366   3.502   3.280   3.280   3.344   3.292   3.513   3.625   3.815   3.820   3.778   3.710   3.533   3.591   3.629   3.560   3.400   3.433   3.401   3.456   3.576
    43.86    3.224   3.013   2.990   3.211   3.208   3.483   3.488   3.363   3.380   3.295   3.383   3.307   3.325   3.377   3.413   3.471   3.624   3.608   3.475   3.431   3.465   3.558   3.766   3.690   3.783   3.706   3.581   3.634   3.688   3.487   3.415   3.405   3.380   3.434   3.397   3.505
    35.29    3.135   3.064   3.196   3.344   3.236   3.400   3.377   3.416   3.471   3.433   3.321   3.297   3.347   3.322   3.308   3.422   3.609   3.506   3.545   3.627   3.605   3.717   3.815   3.889   3.676   3.745   3.506   3.706   3.628   3.470   3.326   3.495   3.445   3.474   3.283   3.576
    26.71    3.344   3.297   3.283   3.400   3.476   3.499   3.448   3.421   3.474   3.376   3.275   3.156   3.307   3.433   3.416   3.550   3.573   3.541   3.618   3.661   3.661   3.621   3.827   3.558   3.649   3.485   3.618   3.776   3.634   3.533   3.455   3.514   3.534   3.460   3.290   3.303
    18.14    3.371   3.521   3.259   3.359   3.376   3.327   3.331   3.385   3.384   3.428   3.348   3.328   3.401   3.534   3.622   3.542   3.467   3.588   3.663   3.603   3.685   3.563   3.830   3.698   3.590   3.727   3.733   3.638   3.739   3.524   3.592   3.572   3.553   3.583   3.534   3.440
     9.57    3.476   3.559   3.490   3.335   3.359   3.341   3.380   3.421   3.266   3.243   3.224   3.361   3.441   3.326   3.421   3.305   3.357   3.444   3.523   3.549   3.550   3.592   3.728   3.843   3.670   3.697   3.864   3.613   3.565   3.610   3.434   3.706   3.776   3.638   3.819   3.701
     1.00    3.342   3.436   3.389   3.351   3.317   3.169   3.211   3.284   3.269   3.273   3.297   3.186   3.096   3.248   3.247   3.218   3.369   3.452   3.208   3.478   3.548   3.663   3.807   3.758   3.739   3.856   3.822   3.758   3.640   3.628   3.734   3.828   3.653   3.758   3.777   3.477

   Height   Standard deviation at grid points for the v component:
   301.00    3.349   3.349   3.349   3.349   3.349   3.349   3.349   3.349   3.349   3.349   3.349   3.349   3.349   3.349   3.349   3.349   3.349   3.349   3.349   3.349   3.349   3.349   3.349   3.349   3.349   3.349   3.349   3.349   3.349   3.349   3.349   3.349   3.349   3.349   3.349   3.349
   292.43    3.349   3.349   3.349   3.349   3.349   3.349   3.349   3.349   3.349   3.349   3.349   3.349   3.349   3.349   3.349   3.349   3.349   3.349   3.349   3.349   3.349   3.349   3.349   3.349   3.349   3.349   3.349   3.349   3.349   3.349   3.349   3.349   3.349   3.349   3.349   3.349
   283.86    3.349   3.349   3.349   3.349   3.349   3.349   3.349   3.349   3.349   3.349   3.349   3.349   3.349   3.349   3.349   3.349   3.349   3.349   3.349   3.349   3.349   3.349   3.349   3.349   3.349   3.349   3.349   3.349   3.349   3.349   3.349   3.349   3.349   3.349   3.349   3.349
   275.29    3.349   3.349   3.349   3.349   3.349   3.349   3.349   3.349   3.349   3.349   3.349   3.349   3.349   3.349   3.349   3.349   3.349   3.349   3.349   3.349   3.349   3.349   3.349   3.349   3.349   3.349   3.349   3.349   3.349   3.349   3.349   3.349   3.349   3.349   3.349   3.349
   266.71    3.349   3.349   3.349   3.349   3.349   3.349   3.349   3.349   3.349   3.349   3.349   3.349   3.349   3.349   3.349   3.349   3.349   3.349   3.349   3.349   3.349   3.349   3.349   3.349   3.349   3.349   3.349   3.349   3.349   3.349   3.349   3.349   3.349   3.349   3.349   3.349
   258.14    3.349   3.349   3.349   3.349   3.349   3.349   3.349   3.349   3.349   3.349   3.349   3.349   3.349   3.349   3.349   3.349   3.349   3.349   3.349   3.349   3.349   3.349   3.349   3.349   3.349   3.349   3.349   3.349   3.349   3.349   3.349   3.349   3.349   3.349   3.349   3.349
   249.57    3.349   3.349   3.349   3.349   3.349   3.349   3.349   3.349   3.349   3.349   3.349   3.349   3.349   3.349   3.349   3.349   3.349   3.349   3.349   3.349   3.349   3.349   3.349   3.349   3.349   3.349   3.349   3.349   3.349   3.349   3.349   3.349   3.349   3.349   3.349   3.349
   241.00    3.349   3.349   3.349   3.349   3.349   3.349   3.349   3.349   3.349   3.349   3.349   3.349   3.349   3.349   3.349   3.349   3.349   3.349   3.349   3.349   3.349   3.349   3.349   3.349   3.349   3.349   3.349   3.349   3.349   3.349   3.349   3.349   3.349   3.349   3.349   3.349
   232.43    3.349   3.349   3.349   3.349   3.349   3.349   3.349   3.349   3.349   3.349   3.349   3.349   3.349   3.349   3.349   3.349   3.349   3.349   3.349   3.349   3.349   3.349   3.349   3.349   3.349   3.349   3.349   3.349   3.349   3.349   3.349   3.349   3.349   3.349   3.349   3.349
   223.86    3.349   3.349   3.349   3.349   3.349   3.349   3.349   3.349   3.349   3.349   3.349   3.349   3.349   3.349   3.349   3.349   3.349   3.349   3.349   3.349   3.349   3.349   3.349   3.349   3.349   3.349   3.349   3.349   3.349   3.349   3.349   3.349   3.349   3.349   3.349   3.349
   215.29    3.349   3.349   3.349   3.349   3.349   3.349   3.349   3.349   3.349   3.349   3.349   3.349   3.349   3.349   3.349   3.349   3.349   3.349   3.349   3.349   3.349   3.349   3.349   3.349   3.349   3.349   3.349   3.349   3.349   3.349   3.349   3.349   3.349   3.349   3.349   3.349
   206.71    3.349   3.349   3.349   3.349   3.349   3.349   3.349   3.349   3.349   3.349   3.349   3.349   3.349   3.349   3.349   3.349   3.349   3.349   3.349   3.349   3.349   3.349   3.349   3.349   3.349   3.349   3.349   3.349   3.349   3.349   3.349   3.349   3.349   3.349   3.349   3.349
   198.14    3.349   3.349   3.349   3.349   3.349   3.349   3.349   3.349   3.349   3.349   3.349   3.349   3.349   3.349   3.349   3.349   3.349   3.349   3.349   3.349   3.349   3.349   3.349   3.349   3.349   3.349   3.349   3.349   3.349   3.349   3.349   3.349   3.349   3.349   3.349   3.349
   189.57    3.349   3.349   3.349   3.349   3.349   3.349   3.349   3.349   3.349   3.349   3.349   3.349   3.349   3.349   3.349   3.349   3.349   3.349   3.349   3.349   3.349   3.349   3.349   3.349   3.349   3.349   3.349   3.349   3.349   3.349   3.349   3.349   3.349   3.349   3.349   3.349
   181.00    3.349   3.349   3.349   3.349   3.349   3.349   3.349   3.349   3.349   3.349   3.349   3.349   3.349   3.349   3.349   3.349   3.349   3.349   3.349   3.349   3.349   3.349   3.349   3.349   3.349   3.349   3.349   3.349   3.349   3.349   3.349   3.349   3.349   3.349   3.349   3.349
   172.43    3.349   3.349   3.349   3.349   3.349   3.349   3.349   3.349   3.349   3.349   3.349   3.349   3.349   3.349   3.349   3.349   3.349   3.349   3.349   3.349   3.349   3.349   3.349   3.349   3.349   3.349   3.349   3.349   3.349   3.349   3.349   3.349   3.349   3.349   3.349   3.349
   163.86    3.349   3.349   3.349   3.349   3.349   3.349   3.349   3.349   3.349   3.349   3.349   3.349   3.349   3.349   3.349   3.349   3.349   3.349   3.349   3.349   3.349   3.349   3.349   3.349   3.349   3.349   3.349   3.349   3.349   3.349   3.349   3.349   3.349   3.349   3.349   3.349
   155.29    3.349   3.349   3.349   3.349   3.349   3.349   3.349   3.349   3.349   3.349   3.349   3.349   3.349   3.349   3.349   3.349   3.349   3.349   3.349   3.349   3.349   3.349   3.349   3.349   3.349   3.349   3.349   3.349   3.349   3.349   3.349   3.349   3.349   3.349   3.349   3.349
   146.71    3.349   3.349   3.349   3.349   3.349   3.349   3.349   3.349   3.349   3.349   3.349   3.349   3.349   3.349   3.349   3.349   3.349   3.349   3.349   3.349   3.349   3.349   3.349   3.349   3.349   3.349   3.349   3.349   3.349   3.349   3.349   3.349   3.349   3.349   3.349   3.349
   138.14    3.349   3.349   3.349   3.349   3.349   3.349   3.349   3.349   3.349   3.349   3.349   3.349   3.349   3.349   3.349   3.349   3.349   3.349   3.349   3.349   3.349   3.349   3.349   3.349   3.349   3.349   3.349   3.349   3.349   3.349   3.349   3.349   3.349   3.349   3.349   3.349
   129.57    3.349   3.349   3.349   3.349   3.349   3.349   3.349   3.349   3.349   3.349   3.349   3.349   3.349   3.349   3.349   3.349   3.349   3.349   3.349   3.349   3.349   3.349   3.349   3.349   3.349   3.349   3.349   3.349   3.349   3.349   3.349   3.349   3.349   3.349   3.349   3.349
   121.00    3.349   3.349   3.349   3.349   3.349   3.349   3.349   3.349   3.349   3.349   3.349   3.349   3.349   3.349   3.349   3.349   3.349   3.349   3.349   3.349   3.349   3.349   3.349   3.349   3.349   3.349   3.349   3.349   3.349   3.349   3.349   3.349   3.349   3.349   3.349   3.349
   112.43    3.349   3.349   3.349   3.349   3.349   3.349   3.349   3.349   3.349   3.349   3.349   3.349   3.349   3.349   3.349   3.349   3.349   3.349   3.349   3.349   3.349   3.349   3.349   3.349   3.349   3.349   3.349   3.349   3.349   3.349   3.349   3.349   3.349   3.349   3.349   3.349
   103.86    3.349   3.349   3.349   3.349   3.349   3.349   3.349   3.349   3.349   3.349   3.349   3.349   3.349   3.349   3.349   3.349   3.349   3.349   3.349   3.349   3.349   3.349   3.349   3.349   3.349   3.349   3.349   3.349   3.349   3.349   3.349   3.349   3.349   3.349   3.349   3.349
    95.29    3.349   3.349   3.349   3.349   3.349   3.349   3.349   3.349   3.349   3.349   3.349   3.349   3.349   3.349   3.349   3.349   3.349   3.349   3.349   3.349   3.349   3.349   3.349   3.349   3.349   3.349   3.349   3.349   3.349   3.349   3.349   3.349   3.349   3.349   3.349   3.349
    86.71    3.349   3.349   3.349   3.349   3.349   3.349   3.349   3.349   3.349   3.349   3.349   3.349   3.349   3.349   3.349   3.349   3.349   3.349   3.349   3.349   3.349   3.349   3.349   3.349   3.349   3.349   3.349   3.349   3.349   3.349   3.349   3.349   3.349   3.349   3.349   3.349
    78.14    3.349   3.349   3.349   3.349   3.349   3.349   3.349   3.349   3.349   3.349   3.349   3.349   3.349   3.349   3.349   3.349   3.349   3.349   3.349   3.349   3.349   3.349   3.349   3.349   3.349   3.349   3.349   3.349   3.349   3.349   3.349   3.349   3.349   3.349   3.349   3.349
    69.57    3.349   3.349   3.349   3.349   3.349   3.349   3.349   3.349   3.349   3.349   3.349   3.349   3.349   3.349   3.349   3.349   3.349   3.349   3.349   3.349   3.349   3.349   3.349   3.349   3.349   3.349   3.349   3.349   3.349   3.349   3.349   3.349   3.349   3.349   3.349   3.349
    61.00    3.349   3.349   3.349   3.349   3.349   3.349   3.349   3.349   3.349   3.349   3.349   3.349   3.349   3.349   3.349   3.349   3.349   3.349   3.349   3.349   3.349   3.349   3.349   3.349   3.349   3.349   3.349   3.349   3.349   3.349   3.349   3.349   3.349   3.349   3.349   3.349
    52.43    3.349   3.349   3.349   3.349   3.349   3.349   3.349   3.349   3.349   3.349   3.349   3.349   3.349   3.349   3.349   3.349   3.349   3.349   3.349   3.349   3.349   3.349   3.349   3.349   3.349   3.349   3.349   3.349   3.349   3.349   3.349   3.349   3.349   3.349   3.349   3.349
    43.86    3.349   3.349   3.349   3.349   3.349   3.349   3.349   3.349   3.349   3.349   3.349   3.349   3.349   3.349   3.349   3.349   3.349   3.349   3.349   3.349   3.349   3.349   3.349   3.349   3.349   3.349   3.349   3.349   3.349   3.349   3.349   3.349   3.349   3.349   3.349   3.349
    35.29    3.349   3.349   3.349   3.349   3.349   3.349   3.349   3.349   3.349   3.349   3.349   3.349   3.349   3.349   3.349   3.349   3.349   3.349   3.349   3.349   3.349   3.349   3.349   3.349   3.349   3.349   3.349   3.349   3.349   3.349   3.349   3.349   3.349   3.349   3.349   3.349
    26.71    3.349   3.349   3.349   3.349   3.349   3.349   3.349   3.349   3.349   3.349   3.349   3.349   3.349   3.349   3.349   3.349   3.349   3.349   3.349   3.349   3.349   3.349   3.349   3.349   3.349   3.349   3.349   3.349   3.349   3.349   3.349   3.349   3.349   3.349   3.349   3.349
    18.14    3.349   3.349   3.349   3.349   3.349   3.349   3.349   3.349   3.349   3.349   3.349   3.349   3.349   3.349   3.349   3.349   3.349   3.349   3.349   3.349   3.349   3.349   3.349   3.349   3.349   3.349   3.349   3.349   3.349   3.349   3.349   3.349   3.349   3.349   3.349   3.349
     9.57    3.349   3.349   3.349   3.349   3.349   3.349   3.349   3.349   3.349   3.349   3.349   3.349   3.349   3.349   3.349   3.349   3.349   3.349   3.349   3.349   3.349   3.349   3.349   3.349   3.349   3.349   3.349   3.349   3.349   3.349   3.349   3.349   3.349   3.349   3.349   3.349
     1.00    3.349   3.349   3.349   3.349   3.349   3.349   3.349   3.349   3.349   3.349   3.349   3.349   3.349   3.349   3.349   3.349   3.349   3.349   3.349   3.349   3.349   3.349   3.349   3.349   3.349   3.349   3.349   3.349   3.349   3.349   3.349   3.349   3.349   3.349   3.349   3.349

   Height   Standard deviation at grid points for the w component:
   301.00    3.349   3.349   3.349   3.349   3.349   3.349   3.349   3.349   3.349   3.349   3.349   3.349   3.349   3.349   3.349   3.349   3.349   3.349   3.349   3.349   3.349   3.349   3.349   3.349   3.349   3.349   3.349   3.349   3.349   3.349   3.349   3.349   3.349   3.349   3.349   3.349
   292.43    3.349   3.349   3.349   3.349   3.349   3.349   3.349   3.349   3.349   3.349   3.349   3.349   3.349   3.349   3.349   3.349   3.349   3.349   3.349   3.349   3.349   3.349   3.349   3.349   3.349   3.349   3.349   3.349   3.349   3.349   3.349   3.349   3.349   3.349   3.349   3.349
   283.86    3.349   3.349   3.349   3.349   3.349   3.349   3.349   3.349   3.349   3.349   3.349   3.349   3.349   3.349   3.349   3.349   3.349   3.349   3.349   3.349   3.349   3.349   3.349   3.349   3.349   3.349   3.349   3.349   3.349   3.349   3.349   3.349   3.349   3.349   3.349   3.349
   275.29    3.349   3.349   3.349   3.349   3.349   3.349   3.349   3.349   3.349   3.349   3.349   3.349   3.349   3.349   3.349   3.349   3.349   3.349   3.349   3.349   3.349   3.349   3.349   3.349   3.349   3.349   3.349   3.349   3.349   3.349   3.349   3.349   3.349   3.349   3.349   3.349
   266.71    3.349   3.349   3.349   3.349   3.349   3.349   3.349   3.349   3.349   3.349   3.349   3.349   3.349   3.349   3.349   3.349   3.349   3.349   3.349   3.349   3.349   3.349   3.349   3.349   3.349   3.349   3.349   3.349   3.349   3.349   3.349   3.349   3.349   3.349   3.349   3.349
   258.14    3.349   3.349   3.349   3.349   3.349   3.349   3.349   3.349   3.349   3.349   3.349   3.349   3.349   3.349   3.349   3.349   3.349   3.349   3.349   3.349   3.349   3.349   3.349   3.349   3.349   3.349   3.349   3.349   3.349   3.349   3.349   3.349   3.349   3.349   3.349   3.349
   249.57    3.349   3.349   3.349   3.349   3.349   3.349   3.349   3.349   3.349   3.349   3.349   3.349   3.349   3.349   3.349   3.349   3.349   3.349   3.349   3.349   3.349   3.349   3.349   3.349   3.349   3.349   3.349   3.349   3.349   3.349   3.349   3.349   3.349   3.349   3.349   3.349
   241.00    3.349   3.349   3.349   3.349   3.349   3.349   3.349   3.349   3.349   3.349   3.349   3.349   3.349   3.349   3.349   3.349   3.349   3.349   3.349   3.349   3.349   3.349   3.349   3.349   3.349   3.349   3.349   3.349   3.349   3.349   3.349   3.349   3.349   3.349   3.349   3.349
   232.43    3.349   3.349   3.349   3.349   3.349   3.349   3.349   3.349   3.349   3.349   3.349   3.349   3.349   3.349   3.349   3.349   3.349   3.349   3.349   3.349   3.349   3.349   3.349   3.349   3.349   3.349   3.349   3.349   3.349   3.349   3.349   3.349   3.349   3.349   3.349   3.349
   223.86    3.349   3.349   3.349   3.349   3.349   3.349   3.349   3.349   3.349   3.349   3.349   3.349   3.349   3.349   3.349   3.349   3.349   3.349   3.349   3.349   3.349   3.349   3.349   3.349   3.349   3.349   3.349   3.349   3.349   3.349   3.349   3.349   3.349   3.349   3.349   3.349
   215.29    3.349   3.349   3.349   3.349   3.349   3.349   3.349   3.349   3.349   3.349   3.349   3.349   3.349   3.349   3.349   3.349   3.349   3.349   3.349   3.349   3.349   3.349   3.349   3.349   3.349   3.349   3.349   3.349   3.349   3.349   3.349   3.349   3.349   3.349   3.349   3.349
   206.71    3.349   3.349   3.349   3.349   3.349   3.349   3.349   3.349   3.349   3.349   3.349   3.349   3.349   3.349   3.349   3.349   3.349   3.349   3.349   3.349   3.349   3.349   3.349   3.349   3.349   3.349   3.349   3.349   3.349   3.349   3.349   3.349   3.349   3.349   3.349   3.349
   198.14    3.349   3.349   3.349   3.349   3.349   3.349   3.349   3.349   3.349   3.349   3.349   3.349   3.349   3.349   3.349   3.349   3.349   3.349   3.349   3.349   3.349   3.349   3.349   3.349   3.349   3.349   3.349   3.349   3.349   3.349   3.349   3.349   3.349   3.349   3.349   3.349
   189.57    3.349   3.349   3.349   3.349   3.349   3.349   3.349   3.349   3.349   3.349   3.349   3.349   3.349   3.349   3.349   3.349   3.349   3.349   3.349   3.349   3.349   3.349   3.349   3.349   3.349   3.349   3.349   3.349   3.349   3.349   3.349   3.349   3.349   3.349   3.349   3.349
   181.00    3.349   3.349   3.349   3.349   3.349   3.349   3.349   3.349   3.349   3.349   3.349   3.349   3.349   3.349   3.349   3.349   3.349   3.349   3.349   3.349   3.349   3.349   3.349   3.349   3.349   3.349   3.349   3.349   3.349   3.349   3.349   3.349   3.349   3.349   3.349   3.349
   172.43    3.349   3.349   3.349   3.349   3.349   3.349   3.349   3.349   3.349   3.349   3.349   3.349   3.349   3.349   3.349   3.349   3.349   3.349   3.349   3.349   3.349   3.349   3.349   3.349   3.349   3.349   3.349   3.349   3.349   3.349   3.349   3.349   3.349   3.349   3.349   3.349
   163.86    3.349   3.349   3.349   3.349   3.349   3.349   3.349   3.349   3.349   3.349   3.349   3.349   3.349   3.349   3.349   3.349   3.349   3.349   3.349   3.349   3.349   3.349   3.349   3.349   3.349   3.349   3.349   3.349   3.349   3.349   3.349   3.349   3.349   3.349   3.349   3.349
   155.29    3.349   3.349   3.349   3.349   3.349   3.349   3.349   3.349   3.349   3.349   3.349   3.349   3.349   3.349   3.349   3.349   3.349   3.349   3.349   3.349   3.349   3.349   3.349   3.349   3.349   3.349   3.349   3.349   3.349   3.349   3.349   3.349   3.349   3.349   3.349   3.349
   146.71    3.349   3.349   3.349   3.349   3.349   3.349   3.349   3.349   3.349   3.349   3.349   3.349   3.349   3.349   3.349   3.349   3.349   3.349   3.349   3.349   3.349   3.349   3.349   3.349   3.349   3.349   3.349   3.349   3.349   3.349   3.349   3.349   3.349   3.349   3.349   3.349
   138.14    3.349   3.349   3.349   3.349   3.349   3.349   3.349   3.349   3.349   3.349   3.349   3.349   3.349   3.349   3.349   3.349   3.349   3.349   3.349   3.349   3.349   3.349   3.349   3.349   3.349   3.349   3.349   3.349   3.349   3.349   3.349   3.349   3.349   3.349   3.349   3.349
   129.57    3.349   3.349   3.349   3.349   3.349   3.349   3.349   3.349   3.349   3.349   3.349   3.349   3.349   3.349   3.349   3.349   3.349   3.349   3.349   3.349   3.349   3.349   3.349   3.349   3.349   3.349   3.349   3.349   3.349   3.349   3.349   3.349   3.349   3.349   3.349   3.349
   121.00    3.349   3.349   3.349   3.349   3.349   3.349   3.349   3.349   3.349   3.349   3.349   3.349   3.349   3.349   3.349   3.349   3.349   3.349   3.349   3.349   3.349   3.349   3.349   3.349   3.349   3.349   3.349   3.349   3.349   3.349   3.349   3.349   3.349   3.349   3.349   3.349
   112.43    3.349   3.349   3.349   3.349   3.349   3.349   3.349   3.349   3.349   3.349   3.349   3.349   3.349   3.349   3.349   3.349   3.349   3.349   3.349   3.349   3.349   3.349   3.349   3.349   3.349   3.349   3.349   3.349   3.349   3.349   3.349   3.349   3.349   3.349   3.349   3.349
   103.86    3.349   3.349   3.349   3.349   3.349   3.349   3.349   3.349   3.349   3.349   3.349   3.349   3.349   3.349   3.349   3.349   3.349   3.349   3.349   3.349   3.349   3.349   3.349   3.349   3.349   3.349   3.349   3.349   3.349   3.349   3.349   3.349   3.349   3.349   3.349   3.349
    95.29    3.349   3.349   3.349   3.349   3.349   3.349   3.349   3.349   3.349   3.349   3.349   3.349   3.349   3.349   3.349   3.349   3.349   3.349   3.349   3.349   3.349   3.349   3.349   3.349   3.349   3.349   3.349   3.349   3.349   3.349   3.349   3.349   3.349   3.349   3.349   3.349
    86.71    3.349   3.349   3.349   3.349   3.349   3.349   3.349   3.349   3.349   3.349   3.349   3.349   3.349   3.349   3.349   3.349   3.349   3.349   3.349   3.349   3.349   3.349   3.349   3.349   3.349   3.349   3.349   3.349   3.349   3.349   3.349   3.349   3.349   3.349   3.349   3.349
    78.14    3.349   3.349   3.349   3.349   3.349   3.349   3.349   3.349   3.349   3.349   3.349   3.349   3.349   3.349   3.349   3.349   3.349   3.349   3.349   3.349   3.349   3.349   3.349   3.349   3.349   3.349   3.349   3.349   3.349   3.349   3.349   3.349   3.349   3.349   3.349   3.349
    69.57    3.349   3.349   3.349   3.349   3.349   3.349   3.349   3.349   3.349   3.349   3.349   3.349   3.349   3.349   3.349   3.349   3.349   3.349   3.349   3.349   3.349   3.349   3.349   3.349   3.349   3.349   3.349   3.349   3.349   3.349   3.349   3.349   3.349   3.349   3.349   3.349
    61.00    3.349   3.349   3.349   3.349   3.349   3.349   3.349   3.349   3.349   3.349   3.349   3.349   3.349   3.349   3.349   3.349   3.349   3.349   3.349   3.349   3.349   3.349   3.349   3.349   3.349   3.349   3.349   3.349   3.349   3.349   3.349   3.349   3.349   3.349   3.349   3.349
    52.43    3.349   3.349   3.349   3.349   3.349   3.349   3.349   3.349   3.349   3.349   3.349   3.349   3.349   3.349   3.349   3.349   3.349   3.349   3.349   3.349   3.349   3.349   3.349   3.349   3.349   3.349   3.349   3.349   3.349   3.349   3.349   3.349   3.349   3.349   3.349   3.349
    43.86    3.349   3.349   3.349   3.349   3.349   3.349   3.349   3.349   3.349   3.349   3.349   3.349   3.349   3.349   3.349   3.349   3.349   3.349   3.349   3.349   3.349   3.349   3.349   3.349   3.349   3.349   3.349   3.349   3.349   3.349   3.349   3.349   3.349   3.349   3.349   3.349
    35.29    3.349   3.349   3.349   3.349   3.349   3.349   3.349   3.349   3.349   3.349   3.349   3.349   3.349   3.349   3.349   3.349   3.349   3.349   3.349   3.349   3.349   3.349   3.349   3.349   3.349   3.349   3.349   3.349   3.349   3.349   3.349   3.349   3.349   3.349   3.349   3.349
    26.71    3.349   3.349   3.349   3.349   3.349   3.349   3.349   3.349   3.349   3.349   3.349   3.349   3.349   3.349   3.349   3.349   3.349   3.349   3.349   3.349   3.349   3.349   3.349   3.349   3.349   3.349   3.349   3.349   3.349   3.349   3.349   3.349   3.349   3.349   3.349   3.349
    18.14    3.349   3.349   3.349   3.349   3.349   3.349   3.349   3.349   3.349   3.349   3.349   3.349   3.349   3.349   3.349   3.349   3.349   3.349   3.349   3.349   3.349   3.349   3.349   3.349   3.349   3.349   3.349   3.349   3.349   3.349   3.349   3.349   3.349   3.349   3.349   3.349
     9.57    3.349   3.349   3.349   3.349   3.349   3.349   3.349   3.349   3.349   3.349   3.349   3.349   3.349   3.349   3.349   3.349   3.349   3.349   3.349   3.349   3.349   3.349   3.349   3.349   3.349   3.349   3.349   3.349   3.349   3.349   3.349   3.349   3.349   3.349   3.349   3.349
     1.00    3.349   3.349   3.349   3.349   3.349   3.349   3.349   3.349   3.349   3.349   3.349   3.349   3.349   3.349   3.349   3.349   3.349   3.349   3.349   3.349   3.349   3.349   3.349   3.349   3.349   3.349   3.349   3.349   3.349   3.349   3.349   3.349   3.349   3.349   3.349   3.349

   Mean standard deviation across all grid points:
      u component:    3.482 m/s
      v component:    3.349 m/s
      w component:    3.349 m/s


U-component (X) statistics from the interpolated hub point:

   Mean =  20.9435 m/s
   TI   =  13.3279 %


Normalizing Parameters for Binary Data (approximate statistics):

   UBar  =  20.9448 m/s
   TI(u) =  15.1112 %
   TI(v) =  15.9910 %
   TI(w) =  15.9910 %

   Height Offset =   0.0000 m
   Grid Base     =   1.0000 m

Creating a PERIODIC output file.


Processing complete.  112.11 CPU seconds used.
