
This summary file was generated by TurbSim (v2.00.07a-bjj, 14-Jun-2016) on 03-Nov-2023 at 03:21:07.


Runtime Options:

      3001  Random seed #1
    RANLUX  Type of random number generator
         F  Output binary HH turbulence parameters?
         F  Output formatted turbulence parameters?
         F  Output AeroDyn HH files?
         F  Output AeroDyn FF files?
         T  Output BLADED FF files?
         F  Output tower data?
         F  Output formatted FF files?
         F  Output coherent turbulence time step file?
         T  Clockwise rotation when looking downwind?
 0 -  NONE  IEC turbulence models scaled to exact specified standard deviation


Turbine/Model Specifications:

        36  Vertical grid-point matrix dimension
        36  Horizontal grid-point matrix dimension
     0.100  Time step [seconds]
   660.000  Analysis time [seconds]
   660.000  Usable output time [seconds]
   151.000  Hub height [m]
   300.000  Grid height [m]
   300.000  Grid width [m]
     0.000  Vertical flow angle [degrees]
     0.000  Horizontal flow angle [degrees]


Meteorological Boundary Conditions:

    IECVKM  IEC von Karman spectral model
         1  IEC standard: IEC 61400-1 Ed. 3: 2005
         A  IEC turbulence characteristic
       NTM  IEC Normal Turbulence Model
       N/A  IEC Extreme Turbulence Model (ETM) "c" parameter [m/s]
       PL   Wind profile type
   153.000  Reference height [m]
    14.000  Reference wind speed [m/s]
       N/A  Jet height [m]
     0.200  Power law exponent
     0.030  Surface roughness length [m]


Non-IEC Meteorological Boundary Conditions:

       N/A  Site latitude [degrees]
       N/A  Gradient Richardson number
       N/A  Friction or shear velocity [m/s]
       N/A  Mixing layer depth [m]
       N/A  Mean hub u'w' Reynolds stress
       N/A  Mean hub u'v' Reynolds stress
       N/A  Mean hub v'w' Reynolds stress


Spatial Coherence Models:

       IEC  u-component coherence model
      NONE  v-component coherence model
      NONE  w-component coherence model
(   12.000, 0.353E-03)  u-component coherence parameters
                   N/A  v-component coherence parameters
                   N/A  w-component coherence parameters
       N/A  Coherence exponent


You have requested that the following file(s) be generated:

   G:\2023\OpenWECDV1.0.0_x64\BaseLIne\wind\WindL_V_14_seed_3001.wnd (AeroDyn/BLADED full-field wnd file)


Turbulence Simulation Scaling Parameter Summary:

   Turbulence model used                            =  IEC von Karman
   Turbulence characteristic                        =  A
   IEC turbulence type                              =  Normal Turbulence Model
   IEC standard                                     =  IEC 61400-1 Ed. 3: 2005
   Mean wind speed at hub height                    =   13.963 m/s
   Expected value of turbulence intensity at 15 m/s =   16.000%
   Characteristic value of standard deviation       =    2.572 m/s
   Turbulence scale                                 =   42.000 m
   Isotropic integral scale                         =  147.000 m
   Characteristic value of hub turbulence intensity =   18.417%
   Gradient Richardson number                       =    0.000

   Wind profile type                                =  Power law
   Power law exponent                               =    0.200
   Mean shear across rotor disk                     =    0.036 (m/s)/m
   Assumed rotor diameter                           =  300.000 m
   Surface roughness length                         =    0.030 m

   Nyquist frequency of turbulent wind field        =    5.000 Hz

   Number of time steps in the FFT                  =     6600
   Number of time steps output                      =     6600
   Number of points simulated                       =     1297


Mean Flow Angles:

   Vertical   =   0.0 degrees
   Horizontal =   0.0 degrees

Mean Wind Speed Profile:

   Height    Wind Speed   Horizontal Angle  Vertical Angle  U-comp (X)   V-comp (Y)   W-comp (Z)
     (m)        (m/s)         (degrees)       (degrees)       (m/s)        (m/s)        (m/s)   
   ------    ----------   ----------------  --------------  ----------   ----------   ----------
    301.0       16.03            0.00            0.00         16.03         0.00         0.00
    292.4       15.94            0.00            0.00         15.94         0.00         0.00
    283.9       15.84            0.00            0.00         15.84         0.00         0.00
    275.3       15.75            0.00            0.00         15.75         0.00         0.00
    266.7       15.65            0.00            0.00         15.65         0.00         0.00
    258.1       15.54            0.00            0.00         15.54         0.00         0.00
    249.6       15.44            0.00            0.00         15.44         0.00         0.00
    241.0       15.33            0.00            0.00         15.33         0.00         0.00
    232.4       15.22            0.00            0.00         15.22         0.00         0.00
    223.9       15.11            0.00            0.00         15.11         0.00         0.00
    215.3       14.99            0.00            0.00         14.99         0.00         0.00
    206.7       14.87            0.00            0.00         14.87         0.00         0.00
    198.1       14.74            0.00            0.00         14.74         0.00         0.00
    189.6       14.61            0.00            0.00         14.61         0.00         0.00
    181.0       14.48            0.00            0.00         14.48         0.00         0.00
    172.4       14.34            0.00            0.00         14.34         0.00         0.00
    163.9       14.19            0.00            0.00         14.19         0.00         0.00
    155.3       14.04            0.00            0.00         14.04         0.00         0.00
    151.0       13.96            0.00            0.00         13.96         0.00         0.00
    146.7       13.88            0.00            0.00         13.88         0.00         0.00
    138.1       13.72            0.00            0.00         13.72         0.00         0.00
    129.6       13.54            0.00            0.00         13.54         0.00         0.00
    121.0       13.36            0.00            0.00         13.36         0.00         0.00
    112.4       13.16            0.00            0.00         13.16         0.00         0.00
    103.9       12.96            0.00            0.00         12.96         0.00         0.00
     95.3       12.73            0.00            0.00         12.73         0.00         0.00
     86.7       12.50            0.00            0.00         12.50         0.00         0.00
     78.1       12.24            0.00            0.00         12.24         0.00         0.00
     69.6       11.96            0.00            0.00         11.96         0.00         0.00
     61.0       11.65            0.00            0.00         11.65         0.00         0.00
     52.4       11.30            0.00            0.00         11.30         0.00         0.00
     43.9       10.90            0.00            0.00         10.90         0.00         0.00
     35.3       10.44            0.00            0.00         10.44         0.00         0.00
     26.7        9.88            0.00            0.00          9.88         0.00         0.00
     18.1        9.14            0.00            0.00          9.14         0.00         0.00
      9.6        8.04            0.00            0.00          8.04         0.00         0.00
      1.0        5.12            0.00            0.00          5.12         0.00         0.00


Harvested Random Seeds after Generation of the Random Numbers:

    119307688 K 1
            0 K 2


Hub-Height Simulated Turbulence Statistical Summary:

   Type of Wind        Min (m/s)   Mean (m/s)    Max (m/s)  Sigma (m/s)       TI (%)
   ----------------    ---------   ----------    ---------  -----------       ------
   Longitudinal (u)         6.43        13.96        22.52        2.543       18.214
   Lateral (v)             -9.55        -0.00         6.58        2.526       18.090
   Vertical (w)            -7.95         0.00         7.91        2.526       18.090
   U component              6.43        13.96        22.52        2.543       18.214
   V component             -9.55        -0.00         6.58        2.526       18.090
   W component             -7.95         0.00         7.91        2.526       18.090
   Horizontal (U&V)         6.43        14.19        22.65        2.531       17.835
   Total                    7.43        14.42        22.71        2.514       17.437

                       Min Reynolds     Mean Reynolds    Max Reynolds    Correlation
   Product             Stress (m/s)^2   Stress (m/s)^2   Stress (m/s)^2  Coefficient
   ----------------    --------------   --------------   --------------  -----------
   u'w'                    -35.647             0.288            42.170         0.045
   u'v'                    -35.885            -0.809            32.908        -0.126
   v'w'                    -45.238            -1.474            31.003        -0.231


   Friction Velocity (Ustar)  =      0.536 m/s
   Maximum Instantaneous TKE  =     58.349 (m/s)^2
   Maximum Instantaneous CTKE =     33.545 (m/s)^2


Grid Point Variance Summary:

   Y-coord -150.00 -141.43 -132.86 -124.29 -115.71 -107.14  -98.57  -90.00  -81.43  -72.86  -64.29  -55.71  -47.14  -38.57  -30.00  -21.43  -12.86   -4.29    4.29   12.86   21.43   30.00   38.57   47.14   55.71   64.29   72.86   81.43   90.00   98.57  107.14  115.71  124.29  132.86  141.43  150.00

   Height   Standard deviation at grid points for the u component:
   301.00    2.711   2.731   2.522   2.489   2.631   2.568   2.579   2.593   2.569   2.648   2.715   2.617   2.709   2.625   2.598   2.659   2.620   2.535   2.527   2.281   2.480   2.469   2.356   2.458   2.360   2.053   2.060   2.066   2.283   2.335   2.415   2.252   2.241   2.288   2.192   2.294
   292.43    2.651   2.594   2.432   2.577   2.678   2.741   2.690   2.545   2.541   2.622   2.604   2.709   2.753   2.771   2.730   2.751   2.824   2.681   2.573   2.414   2.486   2.410   2.561   2.458   2.209   2.022   2.062   2.268   2.244   2.284   2.138   2.322   2.260   2.167   2.036   2.150
   283.86    2.494   2.610   2.562   2.638   2.536   2.758   2.706   2.659   2.710   2.757   2.527   2.561   2.655   2.716   2.794   2.733   2.760   2.727   2.764   2.682   2.477   2.392   2.372   2.364   2.303   2.001   2.209   2.122   2.342   2.365   2.321   2.293   2.201   2.123   1.892   2.037
   275.29    2.515   2.603   2.682   2.617   2.532   2.511   2.632   2.658   2.775   2.604   2.581   2.545   2.559   2.700   2.701   2.811   2.782   2.619   2.761   2.599   2.369   2.353   2.411   2.479   2.343   2.293   2.364   2.242   2.156   2.101   2.126   2.049   2.111   2.044   1.997   1.972
   266.71    2.408   2.599   2.674   2.480   2.412   2.652   2.770   2.713   2.641   2.655   2.630   2.421   2.441   2.440   2.583   2.602   2.679   2.759   2.801   2.656   2.600   2.511   2.406   2.492   2.266   2.289   2.432   2.139   2.017   2.121   2.115   2.033   2.111   2.005   2.017   2.042
   258.14    2.516   2.813   2.713   2.492   2.384   2.520   2.653   2.586   2.529   2.477   2.356   2.260   2.166   2.362   2.365   2.610   2.602   2.849   2.798   2.687   2.599   2.572   2.429   2.422   2.469   2.512   2.316   2.274   2.138   2.227   2.289   2.239   2.103   2.000   1.885   2.129
   249.57    2.487   2.560   2.708   2.587   2.379   2.374   2.385   2.377   2.409   2.430   2.451   2.258   2.241   2.366   2.336   2.458   2.575   2.687   2.555   2.636   2.582   2.526   2.508   2.396   2.481   2.451   2.435   2.431   2.246   2.260   2.270   2.291   2.048   1.882   1.953   2.226
   241.00    2.426   2.385   2.507   2.511   2.448   2.318   2.398   2.308   2.222   2.507   2.561   2.409   2.511   2.565   2.401   2.328   2.564   2.484   2.461   2.572   2.616   2.609   2.505   2.558   2.610   2.431   2.495   2.472   2.384   2.275   2.311   2.232   2.206   2.008   2.198   2.151
   232.43    2.417   2.441   2.469   2.658   2.445   2.222   2.119   2.280   2.335   2.605   2.482   2.372   2.513   2.349   2.463   2.315   2.381   2.413   2.521   2.497   2.570   2.542   2.550   2.641   2.438   2.538   2.541   2.592   2.508   2.430   2.538   2.420   2.336   2.099   2.141   2.025
   223.86    2.461   2.413   2.347   2.399   2.309   2.090   2.111   2.279   2.375   2.511   2.392   2.404   2.428   2.512   2.403   2.407   2.440   2.422   2.433   2.509   2.547   2.491   2.521   2.491   2.530   2.487   2.489   2.628   2.534   2.466   2.456   2.394   2.209   2.040   2.114   2.016
   215.29    2.461   2.480   2.325   2.182   2.301   2.118   2.151   2.243   2.436   2.333   2.435   2.328   2.408   2.340   2.409   2.493   2.496   2.711   2.511   2.491   2.431   2.644   2.641   2.705   2.481   2.517   2.643   2.646   2.474   2.453   2.535   2.456   2.482   2.189   2.212   2.032
   206.71    2.443   2.491   2.380   2.286   2.368   2.324   2.279   2.221   2.152   2.210   2.251   2.369   2.496   2.444   2.464   2.441   2.560   2.622   2.552   2.520   2.469   2.563   2.647   2.616   2.719   2.656   2.678   2.514   2.709   2.664   2.516   2.478   2.565   2.545   2.299   2.122
   198.14    2.574   2.553   2.438   2.484   2.452   2.413   2.425   2.322   2.149   2.179   2.137   2.266   2.346   2.451   2.606   2.568   2.587   2.529   2.651   2.470   2.524   2.601   2.598   2.540   2.490   2.666   2.530   2.625   2.530   2.760   2.733   2.539   2.442   2.406   2.170   2.122
   189.57    2.660   2.601   2.482   2.597   2.481   2.370   2.267   2.128   2.165   2.171   2.198   2.280   2.375   2.554   2.689   2.584   2.575   2.504   2.463   2.509   2.421   2.389   2.510   2.427   2.515   2.636   2.534   2.623   2.588   2.625   2.574   2.505   2.340   2.339   2.342   2.306
   181.00    2.675   2.454   2.578   2.420   2.726   2.417   2.149   2.133   2.028   2.184   2.204   2.139   2.285   2.546   2.670   2.645   2.609   2.567   2.529   2.477   2.342   2.379   2.338   2.459   2.378   2.420   2.470   2.471   2.564   2.582   2.535   2.435   2.535   2.377   2.394   2.371
   172.43    2.586   2.521   2.416   2.431   2.539   2.488   2.105   2.175   2.080   2.122   2.351   2.171   2.315   2.543   2.602   2.505   2.559   2.523   2.413   2.527   2.306   2.306   2.587   2.477   2.399   2.490   2.593   2.423   2.478   2.503   2.551   2.640   2.509   2.423   2.483   2.476
   163.86    2.448   2.482   2.343   2.342   2.333   2.293   2.332   2.166   2.185   2.118   2.191   2.407   2.474   2.456   2.592   2.489   2.397   2.431   2.432   2.450   2.514   2.530   2.541   2.545   2.524   2.507   2.606   2.513   2.527   2.532   2.561   2.648   2.328   2.330   2.598   2.640
   155.29    2.490   2.542   2.292   2.257   2.153   2.357   2.288   2.183   2.236   2.202   2.256   2.203   2.371   2.625   2.571   2.569   2.396   2.560   2.328   2.337   2.449   2.369   2.246   2.468   2.535   2.629   2.477   2.371   2.342   2.263   2.419   2.514   2.505   2.598   2.515   2.591
   146.71    2.399   2.371   2.264   2.359   2.367   2.327   2.357   2.273   2.307   2.308   2.272   2.196   2.332   2.491   2.621   2.499   2.659   2.613   2.539   2.464   2.395   2.329   2.323   2.538   2.680   2.584   2.552   2.286   2.225   2.326   2.445   2.501   2.575   2.480   2.670   2.715
   138.14    2.214   2.331   2.525   2.422   2.562   2.455   2.350   2.330   2.349   2.287   2.109   2.159   2.271   2.486   2.556   2.533   2.584   2.564   2.553   2.498   2.332   2.240   2.366   2.456   2.549   2.605   2.315   2.417   2.361   2.271   2.443   2.670   2.712   2.778   2.784   2.738
   129.57    2.338   2.385   2.507   2.416   2.475   2.605   2.305   2.322   2.309   2.172   2.313   2.255   2.254   2.406   2.570   2.655   2.550   2.537   2.333   2.532   2.334   2.225   2.393   2.326   2.428   2.418   2.384   2.474   2.341   2.350   2.580   2.690   2.517   2.704   2.855   2.857
   121.00    2.265   2.424   2.436   2.392   2.348   2.453   2.468   2.128   2.298   2.293   2.267   2.340   2.446   2.321   2.483   2.567   2.504   2.380   2.494   2.433   2.353   2.465   2.407   2.197   2.405   2.385   2.319   2.308   2.378   2.503   2.536   2.523   2.488   2.759   2.660   2.703
   112.43    2.214   2.221   2.415   2.387   2.421   2.446   2.436   2.278   2.298   2.495   2.426   2.523   2.469   2.400   2.329   2.413   2.361   2.325   2.318   2.255   2.287   2.317   2.441   2.352   2.434   2.283   2.208   2.539   2.637   2.676   2.851   2.695   2.591   2.710   2.724   2.778
   103.86    2.276   2.325   2.354   2.456   2.467   2.605   2.502   2.400   2.407   2.361   2.295   2.386   2.429   2.301   2.217   2.290   2.292   2.298   2.300   2.293   2.358   2.310   2.379   2.442   2.575   2.558   2.498   2.588   2.744   2.712   2.920   2.718   2.561   2.648   2.654   2.646
    95.29    2.479   2.451   2.515   2.527   2.500   2.569   2.306   2.337   2.417   2.395   2.342   2.364   2.322   2.283   2.295   2.205   2.301   2.270   2.523   2.530   2.340   2.264   2.383   2.597   2.536   2.529   2.793   2.739   2.768   2.781   2.948   2.736   2.621   2.718   2.804   2.698
    86.71    2.482   2.446   2.374   2.437   2.463   2.372   2.322   2.276   2.249   2.244   2.332   2.278   2.315   2.406   2.273   2.380   2.451   2.531   2.634   2.513   2.444   2.403   2.592   2.415   2.648   2.532   2.738   2.734   2.831   2.924   2.949   2.820   2.611   2.783   2.844   2.697
    78.14    2.530   2.475   2.486   2.543   2.602   2.543   2.454   2.506   2.318   2.337   2.309   2.424   2.429   2.379   2.543   2.526   2.495   2.626   2.720   2.572   2.589   2.635   2.655   2.464   2.560   2.436   2.799   2.832   3.016   3.014   2.940   2.939   3.037   2.894   2.787   2.747
    69.57    2.610   2.604   2.656   2.777   2.718   2.687   2.559   2.568   2.371   2.397   2.286   2.345   2.384   2.376   2.454   2.466   2.598   2.649   2.737   2.679   2.711   2.644   2.587   2.592   2.483   2.430   2.611   2.822   2.976   3.043   3.079   2.941   2.897   2.887   2.895   2.801
    61.00    2.456   2.791   2.791   2.946   2.821   2.777   2.702   2.634   2.629   2.438   2.324   2.445   2.357   2.336   2.347   2.630   2.703   2.661   2.728   2.703   2.707   2.695   2.568   2.507   2.488   2.510   2.543   2.835   2.870   2.901   2.948   2.786   2.828   2.855   2.945   2.921
    52.43    2.551   2.753   2.716   2.844   2.876   2.786   2.763   2.492   2.632   2.441   2.325   2.468   2.416   2.373   2.370   2.632   2.644   2.679   2.748   2.677   2.605   2.567   2.341   2.336   2.537   2.480   2.710   2.808   2.707   2.779   2.996   2.908   2.751   2.862   3.010   2.874
    43.86    2.452   2.567   2.658   2.561   2.766   2.654   2.477   2.486   2.659   2.463   2.560   2.531   2.329   2.446   2.353   2.641   2.519   2.586   2.605   2.490   2.458   2.556   2.547   2.547   2.740   2.589   2.701   2.686   2.808   2.835   2.875   2.791   2.959   2.846   2.882   2.988
    35.29    2.296   2.577   2.575   2.533   2.689   2.566   2.548   2.495   2.578   2.651   2.497   2.471   2.389   2.483   2.345   2.396   2.411   2.470   2.684   2.431   2.453   2.653   2.499   2.588   2.742   2.802   2.779   2.715   2.778   2.659   2.685   2.835   2.833   2.785   2.733   2.775
    26.71    2.396   2.395   2.529   2.607   2.610   2.528   2.389   2.457   2.551   2.520   2.533   2.588   2.587   2.466   2.330   2.372   2.343   2.503   2.597   2.433   2.408   2.517   2.478   2.581   2.652   2.638   2.655   2.656   2.605   2.661   2.812   2.606   2.738   2.658   2.617   2.676
    18.14    2.410   2.330   2.317   2.573   2.628   2.534   2.302   2.190   2.401   2.483   2.528   2.463   2.550   2.397   2.432   2.397   2.423   2.544   2.535   2.348   2.436   2.393   2.429   2.461   2.471   2.623   2.540   2.743   2.679   2.652   2.613   2.771   2.806   2.631   2.592   2.622
     9.57    2.445   2.307   2.328   2.402   2.478   2.459   2.366   2.197   2.364   2.546   2.563   2.673   2.593   2.507   2.313   2.313   2.486   2.491   2.525   2.505   2.350   2.342   2.338   2.371   2.453   2.550   2.624   2.614   2.603   2.624   2.496   2.664   2.599   2.518   2.524   2.510
     1.00    2.512   2.495   2.504   2.452   2.460   2.228   2.350   2.327   2.313   2.545   2.590   2.643   2.579   2.402   2.335   2.564   2.506   2.539   2.519   2.457   2.339   2.263   2.375   2.491   2.446   2.336   2.526   2.493   2.658   2.636   2.597   2.595   2.563   2.624   2.663   2.509

   Height   Standard deviation at grid points for the v component:
   301.00    2.526   2.526   2.526   2.526   2.526   2.526   2.526   2.526   2.526   2.526   2.526   2.526   2.526   2.526   2.526   2.526   2.526   2.526   2.526   2.526   2.526   2.526   2.526   2.526   2.526   2.526   2.526   2.526   2.526   2.526   2.526   2.526   2.526   2.526   2.526   2.526
   292.43    2.526   2.526   2.526   2.526   2.526   2.526   2.526   2.526   2.526   2.526   2.526   2.526   2.526   2.526   2.526   2.526   2.526   2.526   2.526   2.526   2.526   2.526   2.526   2.526   2.526   2.526   2.526   2.526   2.526   2.526   2.526   2.526   2.526   2.526   2.526   2.526
   283.86    2.526   2.526   2.526   2.526   2.526   2.526   2.526   2.526   2.526   2.526   2.526   2.526   2.526   2.526   2.526   2.526   2.526   2.526   2.526   2.526   2.526   2.526   2.526   2.526   2.526   2.526   2.526   2.526   2.526   2.526   2.526   2.526   2.526   2.526   2.526   2.526
   275.29    2.526   2.526   2.526   2.526   2.526   2.526   2.526   2.526   2.526   2.526   2.526   2.526   2.526   2.526   2.526   2.526   2.526   2.526   2.526   2.526   2.526   2.526   2.526   2.526   2.526   2.526   2.526   2.526   2.526   2.526   2.526   2.526   2.526   2.526   2.526   2.526
   266.71    2.526   2.526   2.526   2.526   2.526   2.526   2.526   2.526   2.526   2.526   2.526   2.526   2.526   2.526   2.526   2.526   2.526   2.526   2.526   2.526   2.526   2.526   2.526   2.526   2.526   2.526   2.526   2.526   2.526   2.526   2.526   2.526   2.526   2.526   2.526   2.526
   258.14    2.526   2.526   2.526   2.526   2.526   2.526   2.526   2.526   2.526   2.526   2.526   2.526   2.526   2.526   2.526   2.526   2.526   2.526   2.526   2.526   2.526   2.526   2.526   2.526   2.526   2.526   2.526   2.526   2.526   2.526   2.526   2.526   2.526   2.526   2.526   2.526
   249.57    2.526   2.526   2.526   2.526   2.526   2.526   2.526   2.526   2.526   2.526   2.526   2.526   2.526   2.526   2.526   2.526   2.526   2.526   2.526   2.526   2.526   2.526   2.526   2.526   2.526   2.526   2.526   2.526   2.526   2.526   2.526   2.526   2.526   2.526   2.526   2.526
   241.00    2.526   2.526   2.526   2.526   2.526   2.526   2.526   2.526   2.526   2.526   2.526   2.526   2.526   2.526   2.526   2.526   2.526   2.526   2.526   2.526   2.526   2.526   2.526   2.526   2.526   2.526   2.526   2.526   2.526   2.526   2.526   2.526   2.526   2.526   2.526   2.526
   232.43    2.526   2.526   2.526   2.526   2.526   2.526   2.526   2.526   2.526   2.526   2.526   2.526   2.526   2.526   2.526   2.526   2.526   2.526   2.526   2.526   2.526   2.526   2.526   2.526   2.526   2.526   2.526   2.526   2.526   2.526   2.526   2.526   2.526   2.526   2.526   2.526
   223.86    2.526   2.526   2.526   2.526   2.526   2.526   2.526   2.526   2.526   2.526   2.526   2.526   2.526   2.526   2.526   2.526   2.526   2.526   2.526   2.526   2.526   2.526   2.526   2.526   2.526   2.526   2.526   2.526   2.526   2.526   2.526   2.526   2.526   2.526   2.526   2.526
   215.29    2.526   2.526   2.526   2.526   2.526   2.526   2.526   2.526   2.526   2.526   2.526   2.526   2.526   2.526   2.526   2.526   2.526   2.526   2.526   2.526   2.526   2.526   2.526   2.526   2.526   2.526   2.526   2.526   2.526   2.526   2.526   2.526   2.526   2.526   2.526   2.526
   206.71    2.526   2.526   2.526   2.526   2.526   2.526   2.526   2.526   2.526   2.526   2.526   2.526   2.526   2.526   2.526   2.526   2.526   2.526   2.526   2.526   2.526   2.526   2.526   2.526   2.526   2.526   2.526   2.526   2.526   2.526   2.526   2.526   2.526   2.526   2.526   2.526
   198.14    2.526   2.526   2.526   2.526   2.526   2.526   2.526   2.526   2.526   2.526   2.526   2.526   2.526   2.526   2.526   2.526   2.526   2.526   2.526   2.526   2.526   2.526   2.526   2.526   2.526   2.526   2.526   2.526   2.526   2.526   2.526   2.526   2.526   2.526   2.526   2.526
   189.57    2.526   2.526   2.526   2.526   2.526   2.526   2.526   2.526   2.526   2.526   2.526   2.526   2.526   2.526   2.526   2.526   2.526   2.526   2.526   2.526   2.526   2.526   2.526   2.526   2.526   2.526   2.526   2.526   2.526   2.526   2.526   2.526   2.526   2.526   2.526   2.526
   181.00    2.526   2.526   2.526   2.526   2.526   2.526   2.526   2.526   2.526   2.526   2.526   2.526   2.526   2.526   2.526   2.526   2.526   2.526   2.526   2.526   2.526   2.526   2.526   2.526   2.526   2.526   2.526   2.526   2.526   2.526   2.526   2.526   2.526   2.526   2.526   2.526
   172.43    2.526   2.526   2.526   2.526   2.526   2.526   2.526   2.526   2.526   2.526   2.526   2.526   2.526   2.526   2.526   2.526   2.526   2.526   2.526   2.526   2.526   2.526   2.526   2.526   2.526   2.526   2.526   2.526   2.526   2.526   2.526   2.526   2.526   2.526   2.526   2.526
   163.86    2.526   2.526   2.526   2.526   2.526   2.526   2.526   2.526   2.526   2.526   2.526   2.526   2.526   2.526   2.526   2.526   2.526   2.526   2.526   2.526   2.526   2.526   2.526   2.526   2.526   2.526   2.526   2.526   2.526   2.526   2.526   2.526   2.526   2.526   2.526   2.526
   155.29    2.526   2.526   2.526   2.526   2.526   2.526   2.526   2.526   2.526   2.526   2.526   2.526   2.526   2.526   2.526   2.526   2.526   2.526   2.526   2.526   2.526   2.526   2.526   2.526   2.526   2.526   2.526   2.526   2.526   2.526   2.526   2.526   2.526   2.526   2.526   2.526
   146.71    2.526   2.526   2.526   2.526   2.526   2.526   2.526   2.526   2.526   2.526   2.526   2.526   2.526   2.526   2.526   2.526   2.526   2.526   2.526   2.526   2.526   2.526   2.526   2.526   2.526   2.526   2.526   2.526   2.526   2.526   2.526   2.526   2.526   2.526   2.526   2.526
   138.14    2.526   2.526   2.526   2.526   2.526   2.526   2.526   2.526   2.526   2.526   2.526   2.526   2.526   2.526   2.526   2.526   2.526   2.526   2.526   2.526   2.526   2.526   2.526   2.526   2.526   2.526   2.526   2.526   2.526   2.526   2.526   2.526   2.526   2.526   2.526   2.526
   129.57    2.526   2.526   2.526   2.526   2.526   2.526   2.526   2.526   2.526   2.526   2.526   2.526   2.526   2.526   2.526   2.526   2.526   2.526   2.526   2.526   2.526   2.526   2.526   2.526   2.526   2.526   2.526   2.526   2.526   2.526   2.526   2.526   2.526   2.526   2.526   2.526
   121.00    2.526   2.526   2.526   2.526   2.526   2.526   2.526   2.526   2.526   2.526   2.526   2.526   2.526   2.526   2.526   2.526   2.526   2.526   2.526   2.526   2.526   2.526   2.526   2.526   2.526   2.526   2.526   2.526   2.526   2.526   2.526   2.526   2.526   2.526   2.526   2.526
   112.43    2.526   2.526   2.526   2.526   2.526   2.526   2.526   2.526   2.526   2.526   2.526   2.526   2.526   2.526   2.526   2.526   2.526   2.526   2.526   2.526   2.526   2.526   2.526   2.526   2.526   2.526   2.526   2.526   2.526   2.526   2.526   2.526   2.526   2.526   2.526   2.526
   103.86    2.526   2.526   2.526   2.526   2.526   2.526   2.526   2.526   2.526   2.526   2.526   2.526   2.526   2.526   2.526   2.526   2.526   2.526   2.526   2.526   2.526   2.526   2.526   2.526   2.526   2.526   2.526   2.526   2.526   2.526   2.526   2.526   2.526   2.526   2.526   2.526
    95.29    2.526   2.526   2.526   2.526   2.526   2.526   2.526   2.526   2.526   2.526   2.526   2.526   2.526   2.526   2.526   2.526   2.526   2.526   2.526   2.526   2.526   2.526   2.526   2.526   2.526   2.526   2.526   2.526   2.526   2.526   2.526   2.526   2.526   2.526   2.526   2.526
    86.71    2.526   2.526   2.526   2.526   2.526   2.526   2.526   2.526   2.526   2.526   2.526   2.526   2.526   2.526   2.526   2.526   2.526   2.526   2.526   2.526   2.526   2.526   2.526   2.526   2.526   2.526   2.526   2.526   2.526   2.526   2.526   2.526   2.526   2.526   2.526   2.526
    78.14    2.526   2.526   2.526   2.526   2.526   2.526   2.526   2.526   2.526   2.526   2.526   2.526   2.526   2.526   2.526   2.526   2.526   2.526   2.526   2.526   2.526   2.526   2.526   2.526   2.526   2.526   2.526   2.526   2.526   2.526   2.526   2.526   2.526   2.526   2.526   2.526
    69.57    2.526   2.526   2.526   2.526   2.526   2.526   2.526   2.526   2.526   2.526   2.526   2.526   2.526   2.526   2.526   2.526   2.526   2.526   2.526   2.526   2.526   2.526   2.526   2.526   2.526   2.526   2.526   2.526   2.526   2.526   2.526   2.526   2.526   2.526   2.526   2.526
    61.00    2.526   2.526   2.526   2.526   2.526   2.526   2.526   2.526   2.526   2.526   2.526   2.526   2.526   2.526   2.526   2.526   2.526   2.526   2.526   2.526   2.526   2.526   2.526   2.526   2.526   2.526   2.526   2.526   2.526   2.526   2.526   2.526   2.526   2.526   2.526   2.526
    52.43    2.526   2.526   2.526   2.526   2.526   2.526   2.526   2.526   2.526   2.526   2.526   2.526   2.526   2.526   2.526   2.526   2.526   2.526   2.526   2.526   2.526   2.526   2.526   2.526   2.526   2.526   2.526   2.526   2.526   2.526   2.526   2.526   2.526   2.526   2.526   2.526
    43.86    2.526   2.526   2.526   2.526   2.526   2.526   2.526   2.526   2.526   2.526   2.526   2.526   2.526   2.526   2.526   2.526   2.526   2.526   2.526   2.526   2.526   2.526   2.526   2.526   2.526   2.526   2.526   2.526   2.526   2.526   2.526   2.526   2.526   2.526   2.526   2.526
    35.29    2.526   2.526   2.526   2.526   2.526   2.526   2.526   2.526   2.526   2.526   2.526   2.526   2.526   2.526   2.526   2.526   2.526   2.526   2.526   2.526   2.526   2.526   2.526   2.526   2.526   2.526   2.526   2.526   2.526   2.526   2.526   2.526   2.526   2.526   2.526   2.526
    26.71    2.526   2.526   2.526   2.526   2.526   2.526   2.526   2.526   2.526   2.526   2.526   2.526   2.526   2.526   2.526   2.526   2.526   2.526   2.526   2.526   2.526   2.526   2.526   2.526   2.526   2.526   2.526   2.526   2.526   2.526   2.526   2.526   2.526   2.526   2.526   2.526
    18.14    2.526   2.526   2.526   2.526   2.526   2.526   2.526   2.526   2.526   2.526   2.526   2.526   2.526   2.526   2.526   2.526   2.526   2.526   2.526   2.526   2.526   2.526   2.526   2.526   2.526   2.526   2.526   2.526   2.526   2.526   2.526   2.526   2.526   2.526   2.526   2.526
     9.57    2.526   2.526   2.526   2.526   2.526   2.526   2.526   2.526   2.526   2.526   2.526   2.526   2.526   2.526   2.526   2.526   2.526   2.526   2.526   2.526   2.526   2.526   2.526   2.526   2.526   2.526   2.526   2.526   2.526   2.526   2.526   2.526   2.526   2.526   2.526   2.526
     1.00    2.526   2.526   2.526   2.526   2.526   2.526   2.526   2.526   2.526   2.526   2.526   2.526   2.526   2.526   2.526   2.526   2.526   2.526   2.526   2.526   2.526   2.526   2.526   2.526   2.526   2.526   2.526   2.526   2.526   2.526   2.526   2.526   2.526   2.526   2.526   2.526

   Height   Standard deviation at grid points for the w component:
   301.00    2.526   2.526   2.526   2.526   2.526   2.526   2.526   2.526   2.526   2.526   2.526   2.526   2.526   2.526   2.526   2.526   2.526   2.526   2.526   2.526   2.526   2.526   2.526   2.526   2.526   2.526   2.526   2.526   2.526   2.526   2.526   2.526   2.526   2.526   2.526   2.526
   292.43    2.526   2.526   2.526   2.526   2.526   2.526   2.526   2.526   2.526   2.526   2.526   2.526   2.526   2.526   2.526   2.526   2.526   2.526   2.526   2.526   2.526   2.526   2.526   2.526   2.526   2.526   2.526   2.526   2.526   2.526   2.526   2.526   2.526   2.526   2.526   2.526
   283.86    2.526   2.526   2.526   2.526   2.526   2.526   2.526   2.526   2.526   2.526   2.526   2.526   2.526   2.526   2.526   2.526   2.526   2.526   2.526   2.526   2.526   2.526   2.526   2.526   2.526   2.526   2.526   2.526   2.526   2.526   2.526   2.526   2.526   2.526   2.526   2.526
   275.29    2.526   2.526   2.526   2.526   2.526   2.526   2.526   2.526   2.526   2.526   2.526   2.526   2.526   2.526   2.526   2.526   2.526   2.526   2.526   2.526   2.526   2.526   2.526   2.526   2.526   2.526   2.526   2.526   2.526   2.526   2.526   2.526   2.526   2.526   2.526   2.526
   266.71    2.526   2.526   2.526   2.526   2.526   2.526   2.526   2.526   2.526   2.526   2.526   2.526   2.526   2.526   2.526   2.526   2.526   2.526   2.526   2.526   2.526   2.526   2.526   2.526   2.526   2.526   2.526   2.526   2.526   2.526   2.526   2.526   2.526   2.526   2.526   2.526
   258.14    2.526   2.526   2.526   2.526   2.526   2.526   2.526   2.526   2.526   2.526   2.526   2.526   2.526   2.526   2.526   2.526   2.526   2.526   2.526   2.526   2.526   2.526   2.526   2.526   2.526   2.526   2.526   2.526   2.526   2.526   2.526   2.526   2.526   2.526   2.526   2.526
   249.57    2.526   2.526   2.526   2.526   2.526   2.526   2.526   2.526   2.526   2.526   2.526   2.526   2.526   2.526   2.526   2.526   2.526   2.526   2.526   2.526   2.526   2.526   2.526   2.526   2.526   2.526   2.526   2.526   2.526   2.526   2.526   2.526   2.526   2.526   2.526   2.526
   241.00    2.526   2.526   2.526   2.526   2.526   2.526   2.526   2.526   2.526   2.526   2.526   2.526   2.526   2.526   2.526   2.526   2.526   2.526   2.526   2.526   2.526   2.526   2.526   2.526   2.526   2.526   2.526   2.526   2.526   2.526   2.526   2.526   2.526   2.526   2.526   2.526
   232.43    2.526   2.526   2.526   2.526   2.526   2.526   2.526   2.526   2.526   2.526   2.526   2.526   2.526   2.526   2.526   2.526   2.526   2.526   2.526   2.526   2.526   2.526   2.526   2.526   2.526   2.526   2.526   2.526   2.526   2.526   2.526   2.526   2.526   2.526   2.526   2.526
   223.86    2.526   2.526   2.526   2.526   2.526   2.526   2.526   2.526   2.526   2.526   2.526   2.526   2.526   2.526   2.526   2.526   2.526   2.526   2.526   2.526   2.526   2.526   2.526   2.526   2.526   2.526   2.526   2.526   2.526   2.526   2.526   2.526   2.526   2.526   2.526   2.526
   215.29    2.526   2.526   2.526   2.526   2.526   2.526   2.526   2.526   2.526   2.526   2.526   2.526   2.526   2.526   2.526   2.526   2.526   2.526   2.526   2.526   2.526   2.526   2.526   2.526   2.526   2.526   2.526   2.526   2.526   2.526   2.526   2.526   2.526   2.526   2.526   2.526
   206.71    2.526   2.526   2.526   2.526   2.526   2.526   2.526   2.526   2.526   2.526   2.526   2.526   2.526   2.526   2.526   2.526   2.526   2.526   2.526   2.526   2.526   2.526   2.526   2.526   2.526   2.526   2.526   2.526   2.526   2.526   2.526   2.526   2.526   2.526   2.526   2.526
   198.14    2.526   2.526   2.526   2.526   2.526   2.526   2.526   2.526   2.526   2.526   2.526   2.526   2.526   2.526   2.526   2.526   2.526   2.526   2.526   2.526   2.526   2.526   2.526   2.526   2.526   2.526   2.526   2.526   2.526   2.526   2.526   2.526   2.526   2.526   2.526   2.526
   189.57    2.526   2.526   2.526   2.526   2.526   2.526   2.526   2.526   2.526   2.526   2.526   2.526   2.526   2.526   2.526   2.526   2.526   2.526   2.526   2.526   2.526   2.526   2.526   2.526   2.526   2.526   2.526   2.526   2.526   2.526   2.526   2.526   2.526   2.526   2.526   2.526
   181.00    2.526   2.526   2.526   2.526   2.526   2.526   2.526   2.526   2.526   2.526   2.526   2.526   2.526   2.526   2.526   2.526   2.526   2.526   2.526   2.526   2.526   2.526   2.526   2.526   2.526   2.526   2.526   2.526   2.526   2.526   2.526   2.526   2.526   2.526   2.526   2.526
   172.43    2.526   2.526   2.526   2.526   2.526   2.526   2.526   2.526   2.526   2.526   2.526   2.526   2.526   2.526   2.526   2.526   2.526   2.526   2.526   2.526   2.526   2.526   2.526   2.526   2.526   2.526   2.526   2.526   2.526   2.526   2.526   2.526   2.526   2.526   2.526   2.526
   163.86    2.526   2.526   2.526   2.526   2.526   2.526   2.526   2.526   2.526   2.526   2.526   2.526   2.526   2.526   2.526   2.526   2.526   2.526   2.526   2.526   2.526   2.526   2.526   2.526   2.526   2.526   2.526   2.526   2.526   2.526   2.526   2.526   2.526   2.526   2.526   2.526
   155.29    2.526   2.526   2.526   2.526   2.526   2.526   2.526   2.526   2.526   2.526   2.526   2.526   2.526   2.526   2.526   2.526   2.526   2.526   2.526   2.526   2.526   2.526   2.526   2.526   2.526   2.526   2.526   2.526   2.526   2.526   2.526   2.526   2.526   2.526   2.526   2.526
   146.71    2.526   2.526   2.526   2.526   2.526   2.526   2.526   2.526   2.526   2.526   2.526   2.526   2.526   2.526   2.526   2.526   2.526   2.526   2.526   2.526   2.526   2.526   2.526   2.526   2.526   2.526   2.526   2.526   2.526   2.526   2.526   2.526   2.526   2.526   2.526   2.526
   138.14    2.526   2.526   2.526   2.526   2.526   2.526   2.526   2.526   2.526   2.526   2.526   2.526   2.526   2.526   2.526   2.526   2.526   2.526   2.526   2.526   2.526   2.526   2.526   2.526   2.526   2.526   2.526   2.526   2.526   2.526   2.526   2.526   2.526   2.526   2.526   2.526
   129.57    2.526   2.526   2.526   2.526   2.526   2.526   2.526   2.526   2.526   2.526   2.526   2.526   2.526   2.526   2.526   2.526   2.526   2.526   2.526   2.526   2.526   2.526   2.526   2.526   2.526   2.526   2.526   2.526   2.526   2.526   2.526   2.526   2.526   2.526   2.526   2.526
   121.00    2.526   2.526   2.526   2.526   2.526   2.526   2.526   2.526   2.526   2.526   2.526   2.526   2.526   2.526   2.526   2.526   2.526   2.526   2.526   2.526   2.526   2.526   2.526   2.526   2.526   2.526   2.526   2.526   2.526   2.526   2.526   2.526   2.526   2.526   2.526   2.526
   112.43    2.526   2.526   2.526   2.526   2.526   2.526   2.526   2.526   2.526   2.526   2.526   2.526   2.526   2.526   2.526   2.526   2.526   2.526   2.526   2.526   2.526   2.526   2.526   2.526   2.526   2.526   2.526   2.526   2.526   2.526   2.526   2.526   2.526   2.526   2.526   2.526
   103.86    2.526   2.526   2.526   2.526   2.526   2.526   2.526   2.526   2.526   2.526   2.526   2.526   2.526   2.526   2.526   2.526   2.526   2.526   2.526   2.526   2.526   2.526   2.526   2.526   2.526   2.526   2.526   2.526   2.526   2.526   2.526   2.526   2.526   2.526   2.526   2.526
    95.29    2.526   2.526   2.526   2.526   2.526   2.526   2.526   2.526   2.526   2.526   2.526   2.526   2.526   2.526   2.526   2.526   2.526   2.526   2.526   2.526   2.526   2.526   2.526   2.526   2.526   2.526   2.526   2.526   2.526   2.526   2.526   2.526   2.526   2.526   2.526   2.526
    86.71    2.526   2.526   2.526   2.526   2.526   2.526   2.526   2.526   2.526   2.526   2.526   2.526   2.526   2.526   2.526   2.526   2.526   2.526   2.526   2.526   2.526   2.526   2.526   2.526   2.526   2.526   2.526   2.526   2.526   2.526   2.526   2.526   2.526   2.526   2.526   2.526
    78.14    2.526   2.526   2.526   2.526   2.526   2.526   2.526   2.526   2.526   2.526   2.526   2.526   2.526   2.526   2.526   2.526   2.526   2.526   2.526   2.526   2.526   2.526   2.526   2.526   2.526   2.526   2.526   2.526   2.526   2.526   2.526   2.526   2.526   2.526   2.526   2.526
    69.57    2.526   2.526   2.526   2.526   2.526   2.526   2.526   2.526   2.526   2.526   2.526   2.526   2.526   2.526   2.526   2.526   2.526   2.526   2.526   2.526   2.526   2.526   2.526   2.526   2.526   2.526   2.526   2.526   2.526   2.526   2.526   2.526   2.526   2.526   2.526   2.526
    61.00    2.526   2.526   2.526   2.526   2.526   2.526   2.526   2.526   2.526   2.526   2.526   2.526   2.526   2.526   2.526   2.526   2.526   2.526   2.526   2.526   2.526   2.526   2.526   2.526   2.526   2.526   2.526   2.526   2.526   2.526   2.526   2.526   2.526   2.526   2.526   2.526
    52.43    2.526   2.526   2.526   2.526   2.526   2.526   2.526   2.526   2.526   2.526   2.526   2.526   2.526   2.526   2.526   2.526   2.526   2.526   2.526   2.526   2.526   2.526   2.526   2.526   2.526   2.526   2.526   2.526   2.526   2.526   2.526   2.526   2.526   2.526   2.526   2.526
    43.86    2.526   2.526   2.526   2.526   2.526   2.526   2.526   2.526   2.526   2.526   2.526   2.526   2.526   2.526   2.526   2.526   2.526   2.526   2.526   2.526   2.526   2.526   2.526   2.526   2.526   2.526   2.526   2.526   2.526   2.526   2.526   2.526   2.526   2.526   2.526   2.526
    35.29    2.526   2.526   2.526   2.526   2.526   2.526   2.526   2.526   2.526   2.526   2.526   2.526   2.526   2.526   2.526   2.526   2.526   2.526   2.526   2.526   2.526   2.526   2.526   2.526   2.526   2.526   2.526   2.526   2.526   2.526   2.526   2.526   2.526   2.526   2.526   2.526
    26.71    2.526   2.526   2.526   2.526   2.526   2.526   2.526   2.526   2.526   2.526   2.526   2.526   2.526   2.526   2.526   2.526   2.526   2.526   2.526   2.526   2.526   2.526   2.526   2.526   2.526   2.526   2.526   2.526   2.526   2.526   2.526   2.526   2.526   2.526   2.526   2.526
    18.14    2.526   2.526   2.526   2.526   2.526   2.526   2.526   2.526   2.526   2.526   2.526   2.526   2.526   2.526   2.526   2.526   2.526   2.526   2.526   2.526   2.526   2.526   2.526   2.526   2.526   2.526   2.526   2.526   2.526   2.526   2.526   2.526   2.526   2.526   2.526   2.526
     9.57    2.526   2.526   2.526   2.526   2.526   2.526   2.526   2.526   2.526   2.526   2.526   2.526   2.526   2.526   2.526   2.526   2.526   2.526   2.526   2.526   2.526   2.526   2.526   2.526   2.526   2.526   2.526   2.526   2.526   2.526   2.526   2.526   2.526   2.526   2.526   2.526
     1.00    2.526   2.526   2.526   2.526   2.526   2.526   2.526   2.526   2.526   2.526   2.526   2.526   2.526   2.526   2.526   2.526   2.526   2.526   2.526   2.526   2.526   2.526   2.526   2.526   2.526   2.526   2.526   2.526   2.526   2.526   2.526   2.526   2.526   2.526   2.526   2.526

   Mean standard deviation across all grid points:
      u component:    2.482 m/s
      v component:    2.526 m/s
      w component:    2.526 m/s


U-component (X) statistics from the interpolated hub point:

   Mean =  13.9623 m/s
   TI   =  16.0158 %


Normalizing Parameters for Binary Data (approximate statistics):

   UBar  =  13.9632 m/s
   TI(u) =  18.2136 %
   TI(v) =  18.0898 %
   TI(w) =  18.0898 %

   Height Offset =   0.0000 m
   Grid Base     =   1.0000 m

Creating a PERIODIC output file.


Processing complete.  116.31 CPU seconds used.
