
This summary file was generated by TurbSim (v2.00.07a-bjj, 14-Jun-2016) on 03-Nov-2023 at 03:24:10.


Runtime Options:

      4501  Random seed #1
    RANLUX  Type of random number generator
         F  Output binary HH turbulence parameters?
         F  Output formatted turbulence parameters?
         F  Output AeroDyn HH files?
         F  Output AeroDyn FF files?
         T  Output BLADED FF files?
         F  Output tower data?
         F  Output formatted FF files?
         F  Output coherent turbulence time step file?
         T  Clockwise rotation when looking downwind?
 0 -  NONE  IEC turbulence models scaled to exact specified standard deviation


Turbine/Model Specifications:

        36  Vertical grid-point matrix dimension
        36  Horizontal grid-point matrix dimension
     0.100  Time step [seconds]
   660.000  Analysis time [seconds]
   660.000  Usable output time [seconds]
   151.000  Hub height [m]
   300.000  Grid height [m]
   300.000  Grid width [m]
     0.000  Vertical flow angle [degrees]
     0.000  Horizontal flow angle [degrees]


Meteorological Boundary Conditions:

    IECVKM  IEC von Karman spectral model
         1  IEC standard: IEC 61400-1 Ed. 3: 2005
         A  IEC turbulence characteristic
       NTM  IEC Normal Turbulence Model
       N/A  IEC Extreme Turbulence Model (ETM) "c" parameter [m/s]
       PL   Wind profile type
   153.000  Reference height [m]
    19.000  Reference wind speed [m/s]
       N/A  Jet height [m]
     0.200  Power law exponent
     0.030  Surface roughness length [m]


Non-IEC Meteorological Boundary Conditions:

       N/A  Site latitude [degrees]
       N/A  Gradient Richardson number
       N/A  Friction or shear velocity [m/s]
       N/A  Mixing layer depth [m]
       N/A  Mean hub u'w' Reynolds stress
       N/A  Mean hub u'v' Reynolds stress
       N/A  Mean hub v'w' Reynolds stress


Spatial Coherence Models:

       IEC  u-component coherence model
      NONE  v-component coherence model
      NONE  w-component coherence model
(   12.000, 0.353E-03)  u-component coherence parameters
                   N/A  v-component coherence parameters
                   N/A  w-component coherence parameters
       N/A  Coherence exponent


You have requested that the following file(s) be generated:

   G:\2023\OpenWECDV1.0.0_x64\BaseLIne\wind\WindL_V_19_seed_4501.wnd (AeroDyn/BLADED full-field wnd file)


Turbulence Simulation Scaling Parameter Summary:

   Turbulence model used                            =  IEC von Karman
   Turbulence characteristic                        =  A
   IEC turbulence type                              =  Normal Turbulence Model
   IEC standard                                     =  IEC 61400-1 Ed. 3: 2005
   Mean wind speed at hub height                    =   18.950 m/s
   Expected value of turbulence intensity at 15 m/s =   16.000%
   Characteristic value of standard deviation       =    3.170 m/s
   Turbulence scale                                 =   42.000 m
   Isotropic integral scale                         =  147.000 m
   Characteristic value of hub turbulence intensity =   16.728%
   Gradient Richardson number                       =    0.000

   Wind profile type                                =  Power law
   Power law exponent                               =    0.200
   Mean shear across rotor disk                     =    0.049 (m/s)/m
   Assumed rotor diameter                           =  300.000 m
   Surface roughness length                         =    0.030 m

   Nyquist frequency of turbulent wind field        =    5.000 Hz

   Number of time steps in the FFT                  =     6600
   Number of time steps output                      =     6600
   Number of points simulated                       =     1297


Mean Flow Angles:

   Vertical   =   0.0 degrees
   Horizontal =   0.0 degrees

Mean Wind Speed Profile:

   Height    Wind Speed   Horizontal Angle  Vertical Angle  U-comp (X)   V-comp (Y)   W-comp (Z)
     (m)        (m/s)         (degrees)       (degrees)       (m/s)        (m/s)        (m/s)   
   ------    ----------   ----------------  --------------  ----------   ----------   ----------
    301.0       21.75            0.00            0.00         21.75         0.00         0.00
    292.4       21.63            0.00            0.00         21.63         0.00         0.00
    283.9       21.50            0.00            0.00         21.50         0.00         0.00
    275.3       21.37            0.00            0.00         21.37         0.00         0.00
    266.7       21.23            0.00            0.00         21.23         0.00         0.00
    258.1       21.10            0.00            0.00         21.10         0.00         0.00
    249.6       20.95            0.00            0.00         20.95         0.00         0.00
    241.0       20.81            0.00            0.00         20.81         0.00         0.00
    232.4       20.66            0.00            0.00         20.66         0.00         0.00
    223.9       20.50            0.00            0.00         20.50         0.00         0.00
    215.3       20.34            0.00            0.00         20.34         0.00         0.00
    206.7       20.18            0.00            0.00         20.18         0.00         0.00
    198.1       20.01            0.00            0.00         20.01         0.00         0.00
    189.6       19.83            0.00            0.00         19.83         0.00         0.00
    181.0       19.65            0.00            0.00         19.65         0.00         0.00
    172.4       19.46            0.00            0.00         19.46         0.00         0.00
    163.9       19.26            0.00            0.00         19.26         0.00         0.00
    155.3       19.06            0.00            0.00         19.06         0.00         0.00
    151.0       18.95            0.00            0.00         18.95         0.00         0.00
    146.7       18.84            0.00            0.00         18.84         0.00         0.00
    138.1       18.62            0.00            0.00         18.62         0.00         0.00
    129.6       18.38            0.00            0.00         18.38         0.00         0.00
    121.0       18.13            0.00            0.00         18.13         0.00         0.00
    112.4       17.86            0.00            0.00         17.86         0.00         0.00
    103.9       17.58            0.00            0.00         17.58         0.00         0.00
     95.3       17.28            0.00            0.00         17.28         0.00         0.00
     86.7       16.96            0.00            0.00         16.96         0.00         0.00
     78.1       16.61            0.00            0.00         16.61         0.00         0.00
     69.6       16.23            0.00            0.00         16.23         0.00         0.00
     61.0       15.81            0.00            0.00         15.81         0.00         0.00
     52.4       15.34            0.00            0.00         15.34         0.00         0.00
     43.9       14.80            0.00            0.00         14.80         0.00         0.00
     35.3       14.17            0.00            0.00         14.17         0.00         0.00
     26.7       13.40            0.00            0.00         13.40         0.00         0.00
     18.1       12.40            0.00            0.00         12.40         0.00         0.00
      9.6       10.91            0.00            0.00         10.91         0.00         0.00
      1.0        6.95            0.00            0.00          6.95         0.00         0.00


Harvested Random Seeds after Generation of the Random Numbers:

    119307688 K 1
            0 K 2


Hub-Height Simulated Turbulence Statistical Summary:

   Type of Wind        Min (m/s)   Mean (m/s)    Max (m/s)  Sigma (m/s)       TI (%)
   ----------------    ---------   ----------    ---------  -----------       ------
   Longitudinal (u)         8.69        18.95        29.35        2.998       15.819
   Lateral (v)            -10.39         0.00        10.72        3.115       16.436
   Vertical (w)            -9.99         0.00        10.04        3.115       16.436
   U component              8.69        18.95        29.35        2.998       15.819
   V component            -10.39         0.00        10.72        3.115       16.436
   W component             -9.99         0.00        10.04        3.115       16.436
   Horizontal (U&V)         8.84        19.21        29.90        2.963       15.427
   Total                    8.92        19.46        30.07        2.944       15.124

                       Min Reynolds     Mean Reynolds    Max Reynolds    Correlation
   Product             Stress (m/s)^2   Stress (m/s)^2   Stress (m/s)^2  Coefficient
   ----------------    --------------   --------------   --------------  -----------
   u'w'                    -53.002            -0.063            38.481        -0.007
   u'v'                    -75.228             0.499            71.452         0.053
   v'w'                    -68.784             0.536            48.298         0.055


   Friction Velocity (Ustar)  =      0.252 m/s
   Maximum Instantaneous TKE  =     99.543 (m/s)^2
   Maximum Instantaneous CTKE =     54.557 (m/s)^2


Grid Point Variance Summary:

   Y-coord -150.00 -141.43 -132.86 -124.29 -115.71 -107.14  -98.57  -90.00  -81.43  -72.86  -64.29  -55.71  -47.14  -38.57  -30.00  -21.43  -12.86   -4.29    4.29   12.86   21.43   30.00   38.57   47.14   55.71   64.29   72.86   81.43   90.00   98.57  107.14  115.71  124.29  132.86  141.43  150.00

   Height   Standard deviation at grid points for the u component:
   301.00    2.925   3.053   3.075   2.982   2.751   2.604   2.585   2.601   2.608   2.563   2.568   2.666   2.617   2.663   2.652   2.576   2.693   2.864   2.975   2.912   2.863   2.772   2.783   2.972   3.130   3.174   3.030   2.933   2.923   3.075   2.944   3.059   3.098   3.020   2.947   3.022
   292.43    2.747   2.756   2.950   2.952   2.802   2.716   2.613   2.551   2.547   2.740   2.611   2.585   2.845   2.826   2.577   2.504   2.604   2.763   2.862   3.034   2.920   2.898   2.736   2.926   3.087   2.969   2.903   3.117   3.110   3.062   3.090   3.054   3.003   2.799   2.967   3.083
   283.86    2.888   3.013   3.032   2.832   2.714   2.800   2.728   2.666   2.778   2.703   2.702   2.703   2.735   2.746   2.668   2.575   2.663   2.616   2.685   2.916   2.914   2.827   2.792   2.842   3.008   2.877   2.972   3.036   3.162   3.093   3.234   3.116   3.129   2.952   2.822   3.017
   275.29    2.980   3.159   3.016   2.898   2.621   2.800   2.736   2.696   2.766   2.826   2.781   2.802   2.825   2.645   2.643   2.607   2.759   2.647   2.604   2.881   2.907   2.750   2.896   2.878   3.023   3.001   2.905   3.023   3.154   3.155   3.171   3.135   3.010   2.846   2.883   2.884
   266.71    3.071   3.079   3.140   3.083   2.809   2.798   2.787   2.747   2.783   2.892   2.676   2.804   2.917   2.805   2.778   2.682   2.745   2.611   2.740   2.676   2.923   2.850   2.821   2.857   2.905   2.931   2.852   2.888   3.026   3.128   3.119   3.061   2.907   2.950   2.734   2.739
   258.14    3.021   3.030   3.206   2.951   2.877   2.889   2.778   2.835   2.953   2.992   2.938   2.800   2.916   2.897   2.771   2.692   2.477   2.652   2.746   2.836   2.827   2.848   2.849   2.794   2.915   2.794   2.853   2.788   2.836   2.898   3.088   2.890   2.845   2.783   2.682   2.600
   249.57    3.169   3.214   3.314   3.200   2.921   3.000   2.777   2.907   3.059   3.040   2.990   2.964   3.021   2.999   2.845   2.667   2.600   2.603   2.838   2.920   2.847   2.842   2.667   2.824   2.873   2.805   2.686   2.834   2.940   2.869   2.987   2.980   2.992   2.731   2.701   2.716
   241.00    3.080   3.154   3.098   3.080   2.850   2.944   3.063   3.130   2.993   2.976   2.810   2.812   2.893   2.845   2.830   2.718   2.689   2.624   2.706   2.752   2.717   2.825   2.634   2.790   2.871   2.868   2.621   2.643   2.799   2.911   2.917   2.773   2.916   2.858   2.831   2.874
   232.43    3.201   3.139   3.147   3.156   3.148   3.098   3.148   3.082   2.927   2.909   3.011   2.931   2.814   2.890   2.876   2.722   2.826   2.662   2.684   2.494   2.623   2.715   2.693   2.791   3.066   2.854   2.592   2.714   2.879   2.852   2.921   2.741   2.775   2.917   2.861   2.991
   223.86    3.169   3.250   3.177   3.200   3.063   3.274   3.202   3.044   2.987   3.009   2.995   3.019   2.843   2.840   2.998   2.939   2.769   2.674   2.942   2.728   2.686   2.901   2.839   2.872   2.994   3.009   2.919   2.914   2.835   2.829   2.967   2.858   2.729   2.776   2.917   3.094
   215.29    3.386   3.304   3.187   3.146   3.136   3.020   3.281   3.155   2.922   3.091   3.180   3.013   3.009   3.014   2.904   2.868   2.935   2.708   2.891   2.964   2.918   3.019   2.978   2.932   2.994   2.951   2.829   2.693   2.751   2.706   2.937   2.889   2.808   2.853   2.818   2.938
   206.71    3.427   3.561   3.392   3.236   3.236   3.240   3.246   3.223   3.230   3.299   3.262   3.193   3.203   3.120   3.054   2.933   2.931   2.792   2.861   2.987   3.234   3.194   2.892   2.827   2.787   2.673   2.644   2.667   2.913   2.839   2.810   2.795   2.720   2.728   2.739   2.888
   198.14    3.340   3.536   3.406   3.276   3.380   3.234   3.276   3.204   3.190   3.268   3.369   3.329   3.234   3.262   3.202   3.064   3.035   2.940   2.822   3.018   3.180   3.270   2.988   2.766   2.668   2.660   2.690   2.692   2.726   2.729   2.817   2.843   2.852   2.698   2.692   2.778
   189.57    3.519   3.369   3.331   3.362   3.220   3.227   3.157   3.310   3.322   3.285   3.409   3.319   3.338   3.290   3.349   3.265   3.228   3.055   3.003   2.839   3.020   3.115   2.977   2.954   2.733   2.685   2.759   2.909   2.768   2.803   2.989   3.033   3.052   2.882   2.853   2.702
   181.00    3.591   3.521   3.499   3.535   3.372   3.396   3.336   3.318   3.236   3.280   3.295   3.232   3.325   3.202   3.075   3.202   3.097   3.102   3.022   2.984   3.163   3.178   2.936   2.978   2.744   2.703   2.742   2.854   3.031   2.943   3.039   3.034   2.970   2.794   2.868   2.899
   172.43    3.575   3.515   3.573   3.485   3.470   3.411   3.331   3.301   3.298   3.212   3.235   3.189   3.210   3.095   3.174   3.067   3.075   3.019   2.809   2.885   3.120   3.134   2.976   2.906   2.661   2.645   2.858   2.794   3.114   3.234   3.253   2.988   2.881   2.911   2.745   2.768
   163.86    3.346   3.463   3.386   3.497   3.396   3.521   3.217   3.345   3.299   3.287   3.272   3.076   2.961   2.919   3.114   3.215   3.071   2.916   2.830   2.717   2.896   2.918   2.843   2.909   2.628   2.669   2.907   2.942   3.105   3.138   3.179   3.063   2.779   2.920   2.797   2.719
   155.29    3.261   3.257   3.293   3.467   3.371   3.306   3.335   3.327   3.324   3.245   3.346   3.093   3.000   3.099   3.080   3.147   2.949   3.006   2.912   2.709   2.768   2.947   2.896   2.733   2.685   2.785   2.921   3.081   2.970   3.116   3.182   3.118   2.960   2.933   2.876   2.947
   146.71    3.130   3.237   3.420   3.449   3.319   3.264   3.357   3.426   3.313   3.342   3.246   3.102   3.175   2.987   3.005   3.096   3.044   3.116   3.101   2.929   2.833   2.911   2.694   2.790   2.728   2.796   2.960   2.925   3.011   3.046   3.062   3.143   3.114   2.937   2.966   2.910
   138.14    2.981   3.157   3.303   3.395   3.570   3.540   3.471   3.389   3.186   3.212   3.274   3.135   3.242   3.026   3.114   3.117   3.127   3.227   3.022   2.940   2.961   2.842   2.662   2.732   2.593   2.702   2.724   2.770   2.805   2.893   3.011   3.091   3.006   3.080   2.886   3.034
   129.57    3.037   3.203   3.336   3.376   3.454   3.468   3.377   3.270   3.044   3.189   3.174   3.216   3.345   3.227   3.092   3.032   3.096   3.030   2.909   2.912   3.016   2.901   2.792   2.658   2.629   2.822   2.697   2.685   2.722   2.886   3.050   3.082   2.970   3.045   2.968   3.138
   121.00    3.169   3.085   3.171   3.299   3.283   3.291   3.228   3.122   3.113   3.161   3.373   3.252   3.286   3.328   3.228   3.126   3.124   3.057   3.085   2.998   2.973   2.800   2.685   2.586   2.629   2.674   2.704   2.753   2.804   2.880   2.954   3.105   3.055   2.889   2.968   2.992
   112.43    3.080   3.096   2.953   3.089   3.192   3.102   3.100   2.892   2.918   2.912   3.225   3.311   3.233   3.179   3.058   2.926   3.009   3.040   2.979   2.812   2.804   2.675   2.650   2.453   2.608   2.762   2.899   2.946   2.884   2.989   3.052   3.077   2.961   2.921   3.014   3.071
   103.86    3.162   2.932   2.780   2.870   2.948   3.035   2.922   2.679   2.856   2.970   3.092   3.167   3.135   2.930   2.770   2.870   3.088   2.917   3.036   2.871   2.686   2.514   2.743   2.636   2.696   2.841   3.014   2.834   2.975   3.043   3.066   3.141   3.144   3.028   2.920   2.903
    95.29    3.126   2.869   2.869   2.819   2.927   2.984   2.851   2.842   2.908   2.833   2.907   2.841   3.018   3.057   2.967   2.891   2.931   2.935   3.030   2.856   2.879   2.735   2.795   2.706   2.754   2.781   2.890   2.812   3.073   3.246   3.272   3.151   3.135   2.988   2.924   2.932
    86.71    3.083   2.949   2.703   3.040   2.925   2.913   2.921   2.751   2.839   3.030   2.902   3.021   3.024   3.071   2.995   3.034   2.974   2.998   3.035   2.859   2.771   2.750   2.871   2.754   2.755   2.706   2.671   2.943   3.238   3.071   3.268   3.356   3.349   3.044   3.133   3.027
    78.14    2.945   2.854   2.720   2.886   2.994   3.049   2.936   2.924   2.915   2.929   2.960   3.012   2.901   2.937   2.912   2.889   2.841   3.050   2.864   2.834   2.834   2.778   2.801   2.738   2.605   2.775   2.876   2.925   3.161   3.545   3.376   3.372   3.232   3.195   3.177   3.191
    69.57    2.814   2.768   2.797   2.989   3.028   2.951   3.019   3.025   3.091   2.990   2.981   2.864   2.885   2.947   2.884   2.751   2.745   2.757   2.854   2.811   2.712   2.701   2.781   2.813   2.828   2.615   2.778   2.997   3.127   3.392   3.418   3.340   3.397   3.161   3.198   3.155
    61.00    2.958   2.938   2.788   2.898   2.869   2.930   2.954   2.941   2.984   2.867   2.855   2.885   2.735   2.844   2.895   2.778   2.705   2.698   2.731   2.650   2.630   2.526   2.605   2.736   2.857   2.791   2.831   2.916   3.012   2.979   3.176   3.265   3.278   3.322   3.269   3.323
    52.43    3.037   2.891   2.798   2.736   2.827   2.980   2.986   2.914   2.880   2.863   2.828   2.897   2.727   2.787   2.876   2.861   2.826   2.728   2.658   2.554   2.616   2.583   2.683   2.750   2.878   2.797   2.796   2.931   2.990   2.924   2.982   3.121   3.178   3.237   3.304   3.345
    43.86    2.969   2.864   2.835   2.785   2.924   2.970   3.046   3.011   2.903   2.968   2.951   2.883   2.790   2.740   2.701   2.813   2.848   2.771   2.648   2.669   2.528   2.567   2.732   2.749   2.675   2.741   2.836   2.891   3.026   2.966   2.871   3.048   3.141   3.153   3.231   3.226
    35.29    2.841   2.968   2.830   2.774   2.835   2.908   3.143   3.143   2.843   3.017   2.917   2.951   2.888   2.795   2.775   2.741   2.776   2.684   2.606   2.724   2.513   2.560   2.647   2.617   2.552   2.709   2.830   2.873   2.828   2.916   2.896   3.013   3.202   3.183   3.158   3.314
    26.71    2.839   2.873   2.903   2.927   3.000   3.133   3.130   3.125   3.027   2.973   2.984   2.971   2.765   2.903   2.888   2.691   2.677   2.694   2.698   2.758   2.617   2.634   2.608   2.625   2.605   2.804   2.780   2.977   2.896   2.979   3.009   3.181   3.315   3.220   3.311   3.407
    18.14    2.716   2.897   2.887   2.884   3.110   3.205   3.121   3.201   3.048   2.981   2.857   3.013   2.889   2.871   2.904   3.021   2.701   2.616   2.972   2.884   2.808   2.790   2.701   2.825   2.688   2.814   2.717   2.752   2.996   3.111   3.039   3.154   3.266   3.222   3.242   3.356
     9.57    2.824   3.039   3.153   3.102   3.067   3.184   3.186   3.266   3.119   3.222   2.975   3.070   2.932   3.023   3.094   3.118   2.829   2.836   2.942   2.968   2.933   2.843   2.820   2.918   2.705   2.800   2.732   2.741   2.817   2.910   3.086   3.133   3.265   3.271   3.359   3.285
     1.00    3.106   3.269   3.167   2.960   3.126   3.105   3.111   3.229   3.167   3.055   3.233   3.165   3.195   3.315   3.274   3.281   3.142   3.013   2.938   3.043   2.931   2.956   2.889   2.874   2.769   2.740   2.956   2.923   2.981   2.855   3.055   3.107   3.153   3.177   3.291   3.394

   Height   Standard deviation at grid points for the v component:
   301.00    3.115   3.115   3.115   3.115   3.115   3.115   3.115   3.115   3.115   3.115   3.115   3.115   3.115   3.115   3.115   3.115   3.115   3.115   3.115   3.115   3.115   3.115   3.115   3.115   3.115   3.115   3.115   3.115   3.115   3.115   3.115   3.115   3.115   3.115   3.115   3.115
   292.43    3.115   3.115   3.115   3.115   3.115   3.115   3.115   3.115   3.115   3.115   3.115   3.115   3.115   3.115   3.115   3.115   3.115   3.115   3.115   3.115   3.115   3.115   3.115   3.115   3.115   3.115   3.115   3.115   3.115   3.115   3.115   3.115   3.115   3.115   3.115   3.115
   283.86    3.115   3.115   3.115   3.115   3.115   3.115   3.115   3.115   3.115   3.115   3.115   3.115   3.115   3.115   3.115   3.115   3.115   3.115   3.115   3.115   3.115   3.115   3.115   3.115   3.115   3.115   3.115   3.115   3.115   3.115   3.115   3.115   3.115   3.115   3.115   3.115
   275.29    3.115   3.115   3.115   3.115   3.115   3.115   3.115   3.115   3.115   3.115   3.115   3.115   3.115   3.115   3.115   3.115   3.115   3.115   3.115   3.115   3.115   3.115   3.115   3.115   3.115   3.115   3.115   3.115   3.115   3.115   3.115   3.115   3.115   3.115   3.115   3.115
   266.71    3.115   3.115   3.115   3.115   3.115   3.115   3.115   3.115   3.115   3.115   3.115   3.115   3.115   3.115   3.115   3.115   3.115   3.115   3.115   3.115   3.115   3.115   3.115   3.115   3.115   3.115   3.115   3.115   3.115   3.115   3.115   3.115   3.115   3.115   3.115   3.115
   258.14    3.115   3.115   3.115   3.115   3.115   3.115   3.115   3.115   3.115   3.115   3.115   3.115   3.115   3.115   3.115   3.115   3.115   3.115   3.115   3.115   3.115   3.115   3.115   3.115   3.115   3.115   3.115   3.115   3.115   3.115   3.115   3.115   3.115   3.115   3.115   3.115
   249.57    3.115   3.115   3.115   3.115   3.115   3.115   3.115   3.115   3.115   3.115   3.115   3.115   3.115   3.115   3.115   3.115   3.115   3.115   3.115   3.115   3.115   3.115   3.115   3.115   3.115   3.115   3.115   3.115   3.115   3.115   3.115   3.115   3.115   3.115   3.115   3.115
   241.00    3.115   3.115   3.115   3.115   3.115   3.115   3.115   3.115   3.115   3.115   3.115   3.115   3.115   3.115   3.115   3.115   3.115   3.115   3.115   3.115   3.115   3.115   3.115   3.115   3.115   3.115   3.115   3.115   3.115   3.115   3.115   3.115   3.115   3.115   3.115   3.115
   232.43    3.115   3.115   3.115   3.115   3.115   3.115   3.115   3.115   3.115   3.115   3.115   3.115   3.115   3.115   3.115   3.115   3.115   3.115   3.115   3.115   3.115   3.115   3.115   3.115   3.115   3.115   3.115   3.115   3.115   3.115   3.115   3.115   3.115   3.115   3.115   3.115
   223.86    3.115   3.115   3.115   3.115   3.115   3.115   3.115   3.115   3.115   3.115   3.115   3.115   3.115   3.115   3.115   3.115   3.115   3.115   3.115   3.115   3.115   3.115   3.115   3.115   3.115   3.115   3.115   3.115   3.115   3.115   3.115   3.115   3.115   3.115   3.115   3.115
   215.29    3.115   3.115   3.115   3.115   3.115   3.115   3.115   3.115   3.115   3.115   3.115   3.115   3.115   3.115   3.115   3.115   3.115   3.115   3.115   3.115   3.115   3.115   3.115   3.115   3.115   3.115   3.115   3.115   3.115   3.115   3.115   3.115   3.115   3.115   3.115   3.115
   206.71    3.115   3.115   3.115   3.115   3.115   3.115   3.115   3.115   3.115   3.115   3.115   3.115   3.115   3.115   3.115   3.115   3.115   3.115   3.115   3.115   3.115   3.115   3.115   3.115   3.115   3.115   3.115   3.115   3.115   3.115   3.115   3.115   3.115   3.115   3.115   3.115
   198.14    3.115   3.115   3.115   3.115   3.115   3.115   3.115   3.115   3.115   3.115   3.115   3.115   3.115   3.115   3.115   3.115   3.115   3.115   3.115   3.115   3.115   3.115   3.115   3.115   3.115   3.115   3.115   3.115   3.115   3.115   3.115   3.115   3.115   3.115   3.115   3.115
   189.57    3.115   3.115   3.115   3.115   3.115   3.115   3.115   3.115   3.115   3.115   3.115   3.115   3.115   3.115   3.115   3.115   3.115   3.115   3.115   3.115   3.115   3.115   3.115   3.115   3.115   3.115   3.115   3.115   3.115   3.115   3.115   3.115   3.115   3.115   3.115   3.115
   181.00    3.115   3.115   3.115   3.115   3.115   3.115   3.115   3.115   3.115   3.115   3.115   3.115   3.115   3.115   3.115   3.115   3.115   3.115   3.115   3.115   3.115   3.115   3.115   3.115   3.115   3.115   3.115   3.115   3.115   3.115   3.115   3.115   3.115   3.115   3.115   3.115
   172.43    3.115   3.115   3.115   3.115   3.115   3.115   3.115   3.115   3.115   3.115   3.115   3.115   3.115   3.115   3.115   3.115   3.115   3.115   3.115   3.115   3.115   3.115   3.115   3.115   3.115   3.115   3.115   3.115   3.115   3.115   3.115   3.115   3.115   3.115   3.115   3.115
   163.86    3.115   3.115   3.115   3.115   3.115   3.115   3.115   3.115   3.115   3.115   3.115   3.115   3.115   3.115   3.115   3.115   3.115   3.115   3.115   3.115   3.115   3.115   3.115   3.115   3.115   3.115   3.115   3.115   3.115   3.115   3.115   3.115   3.115   3.115   3.115   3.115
   155.29    3.115   3.115   3.115   3.115   3.115   3.115   3.115   3.115   3.115   3.115   3.115   3.115   3.115   3.115   3.115   3.115   3.115   3.115   3.115   3.115   3.115   3.115   3.115   3.115   3.115   3.115   3.115   3.115   3.115   3.115   3.115   3.115   3.115   3.115   3.115   3.115
   146.71    3.115   3.115   3.115   3.115   3.115   3.115   3.115   3.115   3.115   3.115   3.115   3.115   3.115   3.115   3.115   3.115   3.115   3.115   3.115   3.115   3.115   3.115   3.115   3.115   3.115   3.115   3.115   3.115   3.115   3.115   3.115   3.115   3.115   3.115   3.115   3.115
   138.14    3.115   3.115   3.115   3.115   3.115   3.115   3.115   3.115   3.115   3.115   3.115   3.115   3.115   3.115   3.115   3.115   3.115   3.115   3.115   3.115   3.115   3.115   3.115   3.115   3.115   3.115   3.115   3.115   3.115   3.115   3.115   3.115   3.115   3.115   3.115   3.115
   129.57    3.115   3.115   3.115   3.115   3.115   3.115   3.115   3.115   3.115   3.115   3.115   3.115   3.115   3.115   3.115   3.115   3.115   3.115   3.115   3.115   3.115   3.115   3.115   3.115   3.115   3.115   3.115   3.115   3.115   3.115   3.115   3.115   3.115   3.115   3.115   3.115
   121.00    3.115   3.115   3.115   3.115   3.115   3.115   3.115   3.115   3.115   3.115   3.115   3.115   3.115   3.115   3.115   3.115   3.115   3.115   3.115   3.115   3.115   3.115   3.115   3.115   3.115   3.115   3.115   3.115   3.115   3.115   3.115   3.115   3.115   3.115   3.115   3.115
   112.43    3.115   3.115   3.115   3.115   3.115   3.115   3.115   3.115   3.115   3.115   3.115   3.115   3.115   3.115   3.115   3.115   3.115   3.115   3.115   3.115   3.115   3.115   3.115   3.115   3.115   3.115   3.115   3.115   3.115   3.115   3.115   3.115   3.115   3.115   3.115   3.115
   103.86    3.115   3.115   3.115   3.115   3.115   3.115   3.115   3.115   3.115   3.115   3.115   3.115   3.115   3.115   3.115   3.115   3.115   3.115   3.115   3.115   3.115   3.115   3.115   3.115   3.115   3.115   3.115   3.115   3.115   3.115   3.115   3.115   3.115   3.115   3.115   3.115
    95.29    3.115   3.115   3.115   3.115   3.115   3.115   3.115   3.115   3.115   3.115   3.115   3.115   3.115   3.115   3.115   3.115   3.115   3.115   3.115   3.115   3.115   3.115   3.115   3.115   3.115   3.115   3.115   3.115   3.115   3.115   3.115   3.115   3.115   3.115   3.115   3.115
    86.71    3.115   3.115   3.115   3.115   3.115   3.115   3.115   3.115   3.115   3.115   3.115   3.115   3.115   3.115   3.115   3.115   3.115   3.115   3.115   3.115   3.115   3.115   3.115   3.115   3.115   3.115   3.115   3.115   3.115   3.115   3.115   3.115   3.115   3.115   3.115   3.115
    78.14    3.115   3.115   3.115   3.115   3.115   3.115   3.115   3.115   3.115   3.115   3.115   3.115   3.115   3.115   3.115   3.115   3.115   3.115   3.115   3.115   3.115   3.115   3.115   3.115   3.115   3.115   3.115   3.115   3.115   3.115   3.115   3.115   3.115   3.115   3.115   3.115
    69.57    3.115   3.115   3.115   3.115   3.115   3.115   3.115   3.115   3.115   3.115   3.115   3.115   3.115   3.115   3.115   3.115   3.115   3.115   3.115   3.115   3.115   3.115   3.115   3.115   3.115   3.115   3.115   3.115   3.115   3.115   3.115   3.115   3.115   3.115   3.115   3.115
    61.00    3.115   3.115   3.115   3.115   3.115   3.115   3.115   3.115   3.115   3.115   3.115   3.115   3.115   3.115   3.115   3.115   3.115   3.115   3.115   3.115   3.115   3.115   3.115   3.115   3.115   3.115   3.115   3.115   3.115   3.115   3.115   3.115   3.115   3.115   3.115   3.115
    52.43    3.115   3.115   3.115   3.115   3.115   3.115   3.115   3.115   3.115   3.115   3.115   3.115   3.115   3.115   3.115   3.115   3.115   3.115   3.115   3.115   3.115   3.115   3.115   3.115   3.115   3.115   3.115   3.115   3.115   3.115   3.115   3.115   3.115   3.115   3.115   3.115
    43.86    3.115   3.115   3.115   3.115   3.115   3.115   3.115   3.115   3.115   3.115   3.115   3.115   3.115   3.115   3.115   3.115   3.115   3.115   3.115   3.115   3.115   3.115   3.115   3.115   3.115   3.115   3.115   3.115   3.115   3.115   3.115   3.115   3.115   3.115   3.115   3.115
    35.29    3.115   3.115   3.115   3.115   3.115   3.115   3.115   3.115   3.115   3.115   3.115   3.115   3.115   3.115   3.115   3.115   3.115   3.115   3.115   3.115   3.115   3.115   3.115   3.115   3.115   3.115   3.115   3.115   3.115   3.115   3.115   3.115   3.115   3.115   3.115   3.115
    26.71    3.115   3.115   3.115   3.115   3.115   3.115   3.115   3.115   3.115   3.115   3.115   3.115   3.115   3.115   3.115   3.115   3.115   3.115   3.115   3.115   3.115   3.115   3.115   3.115   3.115   3.115   3.115   3.115   3.115   3.115   3.115   3.115   3.115   3.115   3.115   3.115
    18.14    3.115   3.115   3.115   3.115   3.115   3.115   3.115   3.115   3.115   3.115   3.115   3.115   3.115   3.115   3.115   3.115   3.115   3.115   3.115   3.115   3.115   3.115   3.115   3.115   3.115   3.115   3.115   3.115   3.115   3.115   3.115   3.115   3.115   3.115   3.115   3.115
     9.57    3.115   3.115   3.115   3.115   3.115   3.115   3.115   3.115   3.115   3.115   3.115   3.115   3.115   3.115   3.115   3.115   3.115   3.115   3.115   3.115   3.115   3.115   3.115   3.115   3.115   3.115   3.115   3.115   3.115   3.115   3.115   3.115   3.115   3.115   3.115   3.115
     1.00    3.115   3.115   3.115   3.115   3.115   3.115   3.115   3.115   3.115   3.115   3.115   3.115   3.115   3.115   3.115   3.115   3.115   3.115   3.115   3.115   3.115   3.115   3.115   3.115   3.115   3.115   3.115   3.115   3.115   3.115   3.115   3.115   3.115   3.115   3.115   3.115

   Height   Standard deviation at grid points for the w component:
   301.00    3.115   3.115   3.115   3.115   3.115   3.115   3.115   3.115   3.115   3.115   3.115   3.115   3.115   3.115   3.115   3.115   3.115   3.115   3.115   3.115   3.115   3.115   3.115   3.115   3.115   3.115   3.115   3.115   3.115   3.115   3.115   3.115   3.115   3.115   3.115   3.115
   292.43    3.115   3.115   3.115   3.115   3.115   3.115   3.115   3.115   3.115   3.115   3.115   3.115   3.115   3.115   3.115   3.115   3.115   3.115   3.115   3.115   3.115   3.115   3.115   3.115   3.115   3.115   3.115   3.115   3.115   3.115   3.115   3.115   3.115   3.115   3.115   3.115
   283.86    3.115   3.115   3.115   3.115   3.115   3.115   3.115   3.115   3.115   3.115   3.115   3.115   3.115   3.115   3.115   3.115   3.115   3.115   3.115   3.115   3.115   3.115   3.115   3.115   3.115   3.115   3.115   3.115   3.115   3.115   3.115   3.115   3.115   3.115   3.115   3.115
   275.29    3.115   3.115   3.115   3.115   3.115   3.115   3.115   3.115   3.115   3.115   3.115   3.115   3.115   3.115   3.115   3.115   3.115   3.115   3.115   3.115   3.115   3.115   3.115   3.115   3.115   3.115   3.115   3.115   3.115   3.115   3.115   3.115   3.115   3.115   3.115   3.115
   266.71    3.115   3.115   3.115   3.115   3.115   3.115   3.115   3.115   3.115   3.115   3.115   3.115   3.115   3.115   3.115   3.115   3.115   3.115   3.115   3.115   3.115   3.115   3.115   3.115   3.115   3.115   3.115   3.115   3.115   3.115   3.115   3.115   3.115   3.115   3.115   3.115
   258.14    3.115   3.115   3.115   3.115   3.115   3.115   3.115   3.115   3.115   3.115   3.115   3.115   3.115   3.115   3.115   3.115   3.115   3.115   3.115   3.115   3.115   3.115   3.115   3.115   3.115   3.115   3.115   3.115   3.115   3.115   3.115   3.115   3.115   3.115   3.115   3.115
   249.57    3.115   3.115   3.115   3.115   3.115   3.115   3.115   3.115   3.115   3.115   3.115   3.115   3.115   3.115   3.115   3.115   3.115   3.115   3.115   3.115   3.115   3.115   3.115   3.115   3.115   3.115   3.115   3.115   3.115   3.115   3.115   3.115   3.115   3.115   3.115   3.115
   241.00    3.115   3.115   3.115   3.115   3.115   3.115   3.115   3.115   3.115   3.115   3.115   3.115   3.115   3.115   3.115   3.115   3.115   3.115   3.115   3.115   3.115   3.115   3.115   3.115   3.115   3.115   3.115   3.115   3.115   3.115   3.115   3.115   3.115   3.115   3.115   3.115
   232.43    3.115   3.115   3.115   3.115   3.115   3.115   3.115   3.115   3.115   3.115   3.115   3.115   3.115   3.115   3.115   3.115   3.115   3.115   3.115   3.115   3.115   3.115   3.115   3.115   3.115   3.115   3.115   3.115   3.115   3.115   3.115   3.115   3.115   3.115   3.115   3.115
   223.86    3.115   3.115   3.115   3.115   3.115   3.115   3.115   3.115   3.115   3.115   3.115   3.115   3.115   3.115   3.115   3.115   3.115   3.115   3.115   3.115   3.115   3.115   3.115   3.115   3.115   3.115   3.115   3.115   3.115   3.115   3.115   3.115   3.115   3.115   3.115   3.115
   215.29    3.115   3.115   3.115   3.115   3.115   3.115   3.115   3.115   3.115   3.115   3.115   3.115   3.115   3.115   3.115   3.115   3.115   3.115   3.115   3.115   3.115   3.115   3.115   3.115   3.115   3.115   3.115   3.115   3.115   3.115   3.115   3.115   3.115   3.115   3.115   3.115
   206.71    3.115   3.115   3.115   3.115   3.115   3.115   3.115   3.115   3.115   3.115   3.115   3.115   3.115   3.115   3.115   3.115   3.115   3.115   3.115   3.115   3.115   3.115   3.115   3.115   3.115   3.115   3.115   3.115   3.115   3.115   3.115   3.115   3.115   3.115   3.115   3.115
   198.14    3.115   3.115   3.115   3.115   3.115   3.115   3.115   3.115   3.115   3.115   3.115   3.115   3.115   3.115   3.115   3.115   3.115   3.115   3.115   3.115   3.115   3.115   3.115   3.115   3.115   3.115   3.115   3.115   3.115   3.115   3.115   3.115   3.115   3.115   3.115   3.115
   189.57    3.115   3.115   3.115   3.115   3.115   3.115   3.115   3.115   3.115   3.115   3.115   3.115   3.115   3.115   3.115   3.115   3.115   3.115   3.115   3.115   3.115   3.115   3.115   3.115   3.115   3.115   3.115   3.115   3.115   3.115   3.115   3.115   3.115   3.115   3.115   3.115
   181.00    3.115   3.115   3.115   3.115   3.115   3.115   3.115   3.115   3.115   3.115   3.115   3.115   3.115   3.115   3.115   3.115   3.115   3.115   3.115   3.115   3.115   3.115   3.115   3.115   3.115   3.115   3.115   3.115   3.115   3.115   3.115   3.115   3.115   3.115   3.115   3.115
   172.43    3.115   3.115   3.115   3.115   3.115   3.115   3.115   3.115   3.115   3.115   3.115   3.115   3.115   3.115   3.115   3.115   3.115   3.115   3.115   3.115   3.115   3.115   3.115   3.115   3.115   3.115   3.115   3.115   3.115   3.115   3.115   3.115   3.115   3.115   3.115   3.115
   163.86    3.115   3.115   3.115   3.115   3.115   3.115   3.115   3.115   3.115   3.115   3.115   3.115   3.115   3.115   3.115   3.115   3.115   3.115   3.115   3.115   3.115   3.115   3.115   3.115   3.115   3.115   3.115   3.115   3.115   3.115   3.115   3.115   3.115   3.115   3.115   3.115
   155.29    3.115   3.115   3.115   3.115   3.115   3.115   3.115   3.115   3.115   3.115   3.115   3.115   3.115   3.115   3.115   3.115   3.115   3.115   3.115   3.115   3.115   3.115   3.115   3.115   3.115   3.115   3.115   3.115   3.115   3.115   3.115   3.115   3.115   3.115   3.115   3.115
   146.71    3.115   3.115   3.115   3.115   3.115   3.115   3.115   3.115   3.115   3.115   3.115   3.115   3.115   3.115   3.115   3.115   3.115   3.115   3.115   3.115   3.115   3.115   3.115   3.115   3.115   3.115   3.115   3.115   3.115   3.115   3.115   3.115   3.115   3.115   3.115   3.115
   138.14    3.115   3.115   3.115   3.115   3.115   3.115   3.115   3.115   3.115   3.115   3.115   3.115   3.115   3.115   3.115   3.115   3.115   3.115   3.115   3.115   3.115   3.115   3.115   3.115   3.115   3.115   3.115   3.115   3.115   3.115   3.115   3.115   3.115   3.115   3.115   3.115
   129.57    3.115   3.115   3.115   3.115   3.115   3.115   3.115   3.115   3.115   3.115   3.115   3.115   3.115   3.115   3.115   3.115   3.115   3.115   3.115   3.115   3.115   3.115   3.115   3.115   3.115   3.115   3.115   3.115   3.115   3.115   3.115   3.115   3.115   3.115   3.115   3.115
   121.00    3.115   3.115   3.115   3.115   3.115   3.115   3.115   3.115   3.115   3.115   3.115   3.115   3.115   3.115   3.115   3.115   3.115   3.115   3.115   3.115   3.115   3.115   3.115   3.115   3.115   3.115   3.115   3.115   3.115   3.115   3.115   3.115   3.115   3.115   3.115   3.115
   112.43    3.115   3.115   3.115   3.115   3.115   3.115   3.115   3.115   3.115   3.115   3.115   3.115   3.115   3.115   3.115   3.115   3.115   3.115   3.115   3.115   3.115   3.115   3.115   3.115   3.115   3.115   3.115   3.115   3.115   3.115   3.115   3.115   3.115   3.115   3.115   3.115
   103.86    3.115   3.115   3.115   3.115   3.115   3.115   3.115   3.115   3.115   3.115   3.115   3.115   3.115   3.115   3.115   3.115   3.115   3.115   3.115   3.115   3.115   3.115   3.115   3.115   3.115   3.115   3.115   3.115   3.115   3.115   3.115   3.115   3.115   3.115   3.115   3.115
    95.29    3.115   3.115   3.115   3.115   3.115   3.115   3.115   3.115   3.115   3.115   3.115   3.115   3.115   3.115   3.115   3.115   3.115   3.115   3.115   3.115   3.115   3.115   3.115   3.115   3.115   3.115   3.115   3.115   3.115   3.115   3.115   3.115   3.115   3.115   3.115   3.115
    86.71    3.115   3.115   3.115   3.115   3.115   3.115   3.115   3.115   3.115   3.115   3.115   3.115   3.115   3.115   3.115   3.115   3.115   3.115   3.115   3.115   3.115   3.115   3.115   3.115   3.115   3.115   3.115   3.115   3.115   3.115   3.115   3.115   3.115   3.115   3.115   3.115
    78.14    3.115   3.115   3.115   3.115   3.115   3.115   3.115   3.115   3.115   3.115   3.115   3.115   3.115   3.115   3.115   3.115   3.115   3.115   3.115   3.115   3.115   3.115   3.115   3.115   3.115   3.115   3.115   3.115   3.115   3.115   3.115   3.115   3.115   3.115   3.115   3.115
    69.57    3.115   3.115   3.115   3.115   3.115   3.115   3.115   3.115   3.115   3.115   3.115   3.115   3.115   3.115   3.115   3.115   3.115   3.115   3.115   3.115   3.115   3.115   3.115   3.115   3.115   3.115   3.115   3.115   3.115   3.115   3.115   3.115   3.115   3.115   3.115   3.115
    61.00    3.115   3.115   3.115   3.115   3.115   3.115   3.115   3.115   3.115   3.115   3.115   3.115   3.115   3.115   3.115   3.115   3.115   3.115   3.115   3.115   3.115   3.115   3.115   3.115   3.115   3.115   3.115   3.115   3.115   3.115   3.115   3.115   3.115   3.115   3.115   3.115
    52.43    3.115   3.115   3.115   3.115   3.115   3.115   3.115   3.115   3.115   3.115   3.115   3.115   3.115   3.115   3.115   3.115   3.115   3.115   3.115   3.115   3.115   3.115   3.115   3.115   3.115   3.115   3.115   3.115   3.115   3.115   3.115   3.115   3.115   3.115   3.115   3.115
    43.86    3.115   3.115   3.115   3.115   3.115   3.115   3.115   3.115   3.115   3.115   3.115   3.115   3.115   3.115   3.115   3.115   3.115   3.115   3.115   3.115   3.115   3.115   3.115   3.115   3.115   3.115   3.115   3.115   3.115   3.115   3.115   3.115   3.115   3.115   3.115   3.115
    35.29    3.115   3.115   3.115   3.115   3.115   3.115   3.115   3.115   3.115   3.115   3.115   3.115   3.115   3.115   3.115   3.115   3.115   3.115   3.115   3.115   3.115   3.115   3.115   3.115   3.115   3.115   3.115   3.115   3.115   3.115   3.115   3.115   3.115   3.115   3.115   3.115
    26.71    3.115   3.115   3.115   3.115   3.115   3.115   3.115   3.115   3.115   3.115   3.115   3.115   3.115   3.115   3.115   3.115   3.115   3.115   3.115   3.115   3.115   3.115   3.115   3.115   3.115   3.115   3.115   3.115   3.115   3.115   3.115   3.115   3.115   3.115   3.115   3.115
    18.14    3.115   3.115   3.115   3.115   3.115   3.115   3.115   3.115   3.115   3.115   3.115   3.115   3.115   3.115   3.115   3.115   3.115   3.115   3.115   3.115   3.115   3.115   3.115   3.115   3.115   3.115   3.115   3.115   3.115   3.115   3.115   3.115   3.115   3.115   3.115   3.115
     9.57    3.115   3.115   3.115   3.115   3.115   3.115   3.115   3.115   3.115   3.115   3.115   3.115   3.115   3.115   3.115   3.115   3.115   3.115   3.115   3.115   3.115   3.115   3.115   3.115   3.115   3.115   3.115   3.115   3.115   3.115   3.115   3.115   3.115   3.115   3.115   3.115
     1.00    3.115   3.115   3.115   3.115   3.115   3.115   3.115   3.115   3.115   3.115   3.115   3.115   3.115   3.115   3.115   3.115   3.115   3.115   3.115   3.115   3.115   3.115   3.115   3.115   3.115   3.115   3.115   3.115   3.115   3.115   3.115   3.115   3.115   3.115   3.115   3.115

   Mean standard deviation across all grid points:
      u component:    2.963 m/s
      v component:    3.115 m/s
      w component:    3.115 m/s


U-component (X) statistics from the interpolated hub point:

   Mean =  18.9488 m/s
   TI   =  14.2255 %


Normalizing Parameters for Binary Data (approximate statistics):

   UBar  =  18.9501 m/s
   TI(u) =  15.8185 %
   TI(v) =  16.4355 %
   TI(w) =  16.4355 %

   Height Offset =   0.0000 m
   Grid Base     =   1.0000 m

Creating a PERIODIC output file.


Processing complete.  116.8 CPU seconds used.
