
This summary file was generated by TurbSim (v2.00.07a-bjj, 14-Jun-2016) on 03-Nov-2023 at 03:21:07.


Runtime Options:

      2801  Random seed #1
    RANLUX  Type of random number generator
         F  Output binary HH turbulence parameters?
         F  Output formatted turbulence parameters?
         F  Output AeroDyn HH files?
         F  Output AeroDyn FF files?
         T  Output BLADED FF files?
         F  Output tower data?
         F  Output formatted FF files?
         F  Output coherent turbulence time step file?
         T  Clockwise rotation when looking downwind?
 0 -  NONE  IEC turbulence models scaled to exact specified standard deviation


Turbine/Model Specifications:

        36  Vertical grid-point matrix dimension
        36  Horizontal grid-point matrix dimension
     0.100  Time step [seconds]
   660.000  Analysis time [seconds]
   660.000  Usable output time [seconds]
   151.000  Hub height [m]
   300.000  Grid height [m]
   300.000  Grid width [m]
     0.000  Vertical flow angle [degrees]
     0.000  Horizontal flow angle [degrees]


Meteorological Boundary Conditions:

    IECVKM  IEC von Karman spectral model
         1  IEC standard: IEC 61400-1 Ed. 3: 2005
         A  IEC turbulence characteristic
       NTM  IEC Normal Turbulence Model
       N/A  IEC Extreme Turbulence Model (ETM) "c" parameter [m/s]
       PL   Wind profile type
   153.000  Reference height [m]
    14.000  Reference wind speed [m/s]
       N/A  Jet height [m]
     0.200  Power law exponent
     0.030  Surface roughness length [m]


Non-IEC Meteorological Boundary Conditions:

       N/A  Site latitude [degrees]
       N/A  Gradient Richardson number
       N/A  Friction or shear velocity [m/s]
       N/A  Mixing layer depth [m]
       N/A  Mean hub u'w' Reynolds stress
       N/A  Mean hub u'v' Reynolds stress
       N/A  Mean hub v'w' Reynolds stress


Spatial Coherence Models:

       IEC  u-component coherence model
      NONE  v-component coherence model
      NONE  w-component coherence model
(   12.000, 0.353E-03)  u-component coherence parameters
                   N/A  v-component coherence parameters
                   N/A  w-component coherence parameters
       N/A  Coherence exponent


You have requested that the following file(s) be generated:

   G:\2023\OpenWECDV1.0.0_x64\BaseLIne\wind\WindL_V_14_seed_2801.wnd (AeroDyn/BLADED full-field wnd file)


Turbulence Simulation Scaling Parameter Summary:

   Turbulence model used                            =  IEC von Karman
   Turbulence characteristic                        =  A
   IEC turbulence type                              =  Normal Turbulence Model
   IEC standard                                     =  IEC 61400-1 Ed. 3: 2005
   Mean wind speed at hub height                    =   13.963 m/s
   Expected value of turbulence intensity at 15 m/s =   16.000%
   Characteristic value of standard deviation       =    2.572 m/s
   Turbulence scale                                 =   42.000 m
   Isotropic integral scale                         =  147.000 m
   Characteristic value of hub turbulence intensity =   18.417%
   Gradient Richardson number                       =    0.000

   Wind profile type                                =  Power law
   Power law exponent                               =    0.200
   Mean shear across rotor disk                     =    0.036 (m/s)/m
   Assumed rotor diameter                           =  300.000 m
   Surface roughness length                         =    0.030 m

   Nyquist frequency of turbulent wind field        =    5.000 Hz

   Number of time steps in the FFT                  =     6600
   Number of time steps output                      =     6600
   Number of points simulated                       =     1297


Mean Flow Angles:

   Vertical   =   0.0 degrees
   Horizontal =   0.0 degrees

Mean Wind Speed Profile:

   Height    Wind Speed   Horizontal Angle  Vertical Angle  U-comp (X)   V-comp (Y)   W-comp (Z)
     (m)        (m/s)         (degrees)       (degrees)       (m/s)        (m/s)        (m/s)   
   ------    ----------   ----------------  --------------  ----------   ----------   ----------
    301.0       16.03            0.00            0.00         16.03         0.00         0.00
    292.4       15.94            0.00            0.00         15.94         0.00         0.00
    283.9       15.84            0.00            0.00         15.84         0.00         0.00
    275.3       15.75            0.00            0.00         15.75         0.00         0.00
    266.7       15.65            0.00            0.00         15.65         0.00         0.00
    258.1       15.54            0.00            0.00         15.54         0.00         0.00
    249.6       15.44            0.00            0.00         15.44         0.00         0.00
    241.0       15.33            0.00            0.00         15.33         0.00         0.00
    232.4       15.22            0.00            0.00         15.22         0.00         0.00
    223.9       15.11            0.00            0.00         15.11         0.00         0.00
    215.3       14.99            0.00            0.00         14.99         0.00         0.00
    206.7       14.87            0.00            0.00         14.87         0.00         0.00
    198.1       14.74            0.00            0.00         14.74         0.00         0.00
    189.6       14.61            0.00            0.00         14.61         0.00         0.00
    181.0       14.48            0.00            0.00         14.48         0.00         0.00
    172.4       14.34            0.00            0.00         14.34         0.00         0.00
    163.9       14.19            0.00            0.00         14.19         0.00         0.00
    155.3       14.04            0.00            0.00         14.04         0.00         0.00
    151.0       13.96            0.00            0.00         13.96         0.00         0.00
    146.7       13.88            0.00            0.00         13.88         0.00         0.00
    138.1       13.72            0.00            0.00         13.72         0.00         0.00
    129.6       13.54            0.00            0.00         13.54         0.00         0.00
    121.0       13.36            0.00            0.00         13.36         0.00         0.00
    112.4       13.16            0.00            0.00         13.16         0.00         0.00
    103.9       12.96            0.00            0.00         12.96         0.00         0.00
     95.3       12.73            0.00            0.00         12.73         0.00         0.00
     86.7       12.50            0.00            0.00         12.50         0.00         0.00
     78.1       12.24            0.00            0.00         12.24         0.00         0.00
     69.6       11.96            0.00            0.00         11.96         0.00         0.00
     61.0       11.65            0.00            0.00         11.65         0.00         0.00
     52.4       11.30            0.00            0.00         11.30         0.00         0.00
     43.9       10.90            0.00            0.00         10.90         0.00         0.00
     35.3       10.44            0.00            0.00         10.44         0.00         0.00
     26.7        9.88            0.00            0.00          9.88         0.00         0.00
     18.1        9.14            0.00            0.00          9.14         0.00         0.00
      9.6        8.04            0.00            0.00          8.04         0.00         0.00
      1.0        5.12            0.00            0.00          5.12         0.00         0.00


Harvested Random Seeds after Generation of the Random Numbers:

    119307688 K 1
            0 K 2


Hub-Height Simulated Turbulence Statistical Summary:

   Type of Wind        Min (m/s)   Mean (m/s)    Max (m/s)  Sigma (m/s)       TI (%)
   ----------------    ---------   ----------    ---------  -----------       ------
   Longitudinal (u)         6.81        13.96        21.55        2.401       17.198
   Lateral (v)             -9.60         0.00         7.60        2.526       18.090
   Vertical (w)            -8.32         0.00         7.88        2.526       18.090
   U component              6.81        13.96        21.55        2.401       17.198
   V component             -9.60         0.00         7.60        2.526       18.090
   W component             -8.32         0.00         7.88        2.526       18.090
   Horizontal (U&V)         6.83        14.20        21.65        2.365       16.661
   Total                    6.95        14.42        22.08        2.339       16.216

                       Min Reynolds     Mean Reynolds    Max Reynolds    Correlation
   Product             Stress (m/s)^2   Stress (m/s)^2   Stress (m/s)^2  Coefficient
   ----------------    --------------   --------------   --------------  -----------
   u'w'                    -27.676             0.122            33.829         0.020
   u'v'                    -34.339            -0.408            29.209        -0.067
   v'w'                    -29.261             0.051            38.884         0.008


   Friction Velocity (Ustar)  =      0.350 m/s
   Maximum Instantaneous TKE  =     49.655 (m/s)^2
   Maximum Instantaneous CTKE =     25.777 (m/s)^2


Grid Point Variance Summary:

   Y-coord -150.00 -141.43 -132.86 -124.29 -115.71 -107.14  -98.57  -90.00  -81.43  -72.86  -64.29  -55.71  -47.14  -38.57  -30.00  -21.43  -12.86   -4.29    4.29   12.86   21.43   30.00   38.57   47.14   55.71   64.29   72.86   81.43   90.00   98.57  107.14  115.71  124.29  132.86  141.43  150.00

   Height   Standard deviation at grid points for the u component:
   301.00    2.265   2.381   2.412   2.567   2.533   2.524   2.336   2.449   2.348   2.514   2.321   2.514   2.368   2.367   2.285   2.073   2.142   2.219   2.314   2.243   2.227   2.405   2.320   2.658   2.783   2.590   2.615   2.704   2.602   2.515   2.696   2.582   2.596   2.677   2.827   2.710
   292.43    2.319   2.264   2.433   2.385   2.443   2.360   2.521   2.501   2.507   2.604   2.358   2.451   2.410   2.239   2.198   2.077   2.081   2.036   2.194   2.222   2.249   2.253   2.279   2.355   2.725   2.783   2.705   2.639   2.479   2.520   2.602   2.698   2.636   2.716   2.714   2.543
   283.86    2.344   2.394   2.437   2.301   2.638   2.525   2.717   2.491   2.441   2.460   2.511   2.418   2.188   2.226   2.136   2.038   2.041   2.201   2.192   2.227   2.158   2.082   2.310   2.305   2.560   2.632   2.448   2.600   2.543   2.602   2.565   2.490   2.521   2.604   2.590   2.621
   275.29    2.308   2.459   2.357   2.536   2.606   2.747   2.751   2.745   2.407   2.373   2.419   2.308   2.220   2.181   2.097   2.135   2.046   2.192   2.212   2.275   2.173   2.259   2.268   2.249   2.315   2.511   2.611   2.733   2.594   2.532   2.542   2.472   2.575   2.592   2.551   2.587
   266.71    2.332   2.485   2.376   2.432   2.651   2.716   2.692   2.709   2.512   2.325   2.374   2.260   2.289   2.264   2.327   2.340   2.320   2.276   2.419   2.396   2.268   2.309   2.313   2.222   2.470   2.529   2.727   2.845   2.825   2.723   2.649   2.563   2.601   2.646   2.657   2.738
   258.14    2.396   2.549   2.521   2.497   2.550   2.635   2.622   2.678   2.536   2.307   2.260   2.319   2.258   2.372   2.408   2.499   2.388   2.246   2.542   2.490   2.449   2.386   2.460   2.282   2.493   2.594   2.704   2.827   2.790   2.773   2.808   2.913   2.880   2.720   2.597   2.629
   249.57    2.193   2.379   2.455   2.404   2.559   2.500   2.624   2.624   2.667   2.485   2.328   2.328   2.236   2.358   2.355   2.355   2.337   2.462   2.637   2.661   2.504   2.542   2.438   2.415   2.540   2.522   2.854   2.876   2.933   2.875   2.886   2.954   2.981   2.938   2.663   2.669
   241.00    2.316   2.262   2.286   2.205   2.417   2.370   2.410   2.542   2.672   2.692   2.457   2.391   2.444   2.418   2.436   2.543   2.343   2.369   2.368   2.413   2.439   2.554   2.455   2.389   2.524   2.486   2.782   2.871   2.951   2.856   2.718   2.756   2.785   2.812   2.558   2.748
   232.43    2.376   2.185   2.225   2.418   2.396   2.413   2.483   2.436   2.582   2.574   2.334   2.375   2.346   2.364   2.299   2.398   2.346   2.409   2.307   2.547   2.534   2.616   2.421   2.371   2.339   2.349   2.625   2.850   2.852   2.894   2.853   2.767   2.840   2.761   2.625   2.395
   223.86    2.288   2.275   2.331   2.550   2.633   2.683   2.528   2.582   2.484   2.395   2.371   2.294   2.469   2.314   2.343   2.258   2.367   2.405   2.455   2.566   2.403   2.524   2.429   2.402   2.319   2.521   2.740   2.763   2.899   2.901   2.828   2.642   2.798   2.741   2.677   2.643
   215.29    2.377   2.332   2.425   2.539   2.734   2.617   2.549   2.461   2.487   2.509   2.564   2.432   2.574   2.407   2.349   2.284   2.380   2.417   2.408   2.453   2.425   2.425   2.450   2.439   2.440   2.608   2.706   2.803   2.951   2.814   2.695   2.866   2.656   2.739   2.673   2.630
   206.71    2.466   2.520   2.614   2.536   2.673   2.640   2.546   2.502   2.673   2.525   2.455   2.588   2.472   2.454   2.359   2.311   2.368   2.518   2.514   2.450   2.434   2.528   2.501   2.327   2.354   2.505   2.543   2.691   2.754   2.787   2.753   2.689   2.614   2.450   2.669   2.673
   198.14    2.673   2.600   2.681   2.565   2.599   2.493   2.491   2.637   2.665   2.454   2.542   2.506   2.404   2.405   2.236   2.190   2.233   2.324   2.450   2.365   2.344   2.453   2.456   2.479   2.394   2.485   2.571   2.666   2.610   2.776   2.644   2.804   2.832   2.725   2.671   2.659
   189.57    2.489   2.682   2.546   2.504   2.637   2.563   2.529   2.519   2.604   2.561   2.432   2.465   2.446   2.325   2.205   2.224   2.114   2.320   2.442   2.386   2.325   2.611   2.587   2.431   2.346   2.499   2.607   2.638   2.603   2.770   2.702   2.738   2.749   2.674   2.536   2.597
   181.00    2.542   2.505   2.451   2.529   2.594   2.513   2.543   2.646   2.640   2.545   2.563   2.443   2.455   2.299   2.284   2.405   2.359   2.492   2.385   2.434   2.424   2.528   2.586   2.401   2.371   2.661   2.551   2.737   2.754   2.750   2.617   2.762   2.764   2.499   2.532   2.556
   172.43    2.390   2.626   2.365   2.461   2.528   2.546   2.514   2.540   2.542   2.439   2.576   2.515   2.348   2.360   2.367   2.463   2.361   2.442   2.500   2.410   2.372   2.251   2.360   2.463   2.533   2.622   2.654   2.742   2.567   2.701   2.617   2.738   2.603   2.531   2.596   2.652
   163.86    2.583   2.507   2.384   2.573   2.507   2.445   2.376   2.345   2.534   2.525   2.520   2.427   2.463   2.450   2.465   2.478   2.333   2.395   2.395   2.391   2.310   2.309   2.314   2.366   2.389   2.492   2.773   2.680   2.639   2.749   2.718   2.574   2.593   2.561   2.616   2.548
   155.29    2.649   2.641   2.552   2.673   2.685   2.497   2.373   2.451   2.460   2.539   2.576   2.453   2.650   2.458   2.723   2.574   2.462   2.348   2.347   2.415   2.325   2.255   2.455   2.366   2.402   2.624   2.711   2.671   2.547   2.644   2.672   2.775   2.630   2.407   2.491   2.665
   146.71    2.591   2.559   2.484   2.361   2.627   2.641   2.324   2.384   2.334   2.381   2.477   2.678   2.652   2.672   2.738   2.563   2.612   2.592   2.584   2.447   2.403   2.468   2.388   2.545   2.408   2.517   2.483   2.606   2.573   2.688   2.722   2.655   2.539   2.491   2.489   2.550
   138.14    2.450   2.514   2.427   2.432   2.581   2.538   2.515   2.434   2.454   2.474   2.456   2.564   2.624   2.672   2.633   2.652   2.449   2.514   2.502   2.436   2.309   2.395   2.595   2.563   2.637   2.442   2.516   2.391   2.505   2.578   2.601   2.673   2.551   2.633   2.622   2.730
   129.57    2.360   2.311   2.315   2.462   2.543   2.423   2.399   2.446   2.359   2.463   2.484   2.597   2.520   2.570   2.602   2.571   2.493   2.535   2.516   2.473   2.414   2.444   2.348   2.320   2.391   2.439   2.461   2.554   2.615   2.665   2.703   2.584   2.598   2.583   2.585   2.634
   121.00    2.332   2.293   2.257   2.341   2.464   2.445   2.447   2.391   2.447   2.491   2.416   2.563   2.612   2.686   2.560   2.542   2.552   2.698   2.591   2.419   2.405   2.346   2.202   2.221   2.272   2.472   2.443   2.770   2.704   2.887   2.617   2.496   2.572   2.430   2.595   2.649
   112.43    2.340   2.414   2.436   2.293   2.358   2.445   2.493   2.469   2.425   2.334   2.514   2.554   2.560   2.674   2.643   2.581   2.593   2.661   2.646   2.370   2.313   2.362   2.198   2.281   2.248   2.249   2.510   2.546   2.712   2.757   2.649   2.582   2.469   2.496   2.524   2.586
   103.86    2.421   2.468   2.321   2.281   2.431   2.458   2.447   2.329   2.418   2.606   2.440   2.545   2.630   2.746   2.577   2.525   2.574   2.544   2.523   2.415   2.331   2.307   2.223   2.181   2.210   2.386   2.400   2.484   2.627   2.805   2.754   2.605   2.387   2.529   2.559   2.604
    95.29    2.436   2.381   2.392   2.194   2.318   2.499   2.475   2.326   2.391   2.576   2.535   2.438   2.550   2.562   2.577   2.476   2.597   2.596   2.404   2.304   2.339   2.276   2.253   2.245   2.270   2.438   2.453   2.605   2.607   2.656   2.674   2.619   2.505   2.535   2.677   2.590
    86.71    2.450   2.402   2.324   2.235   2.362   2.436   2.474   2.295   2.351   2.405   2.426   2.482   2.665   2.675   2.468   2.489   2.713   2.541   2.586   2.477   2.479   2.250   2.479   2.452   2.455   2.483   2.450   2.525   2.521   2.422   2.588   2.675   2.514   2.735   2.742   2.550
    78.14    2.141   2.208   2.203   2.173   2.348   2.481   2.589   2.428   2.514   2.489   2.223   2.511   2.530   2.620   2.439   2.530   2.554   2.650   2.636   2.612   2.416   2.287   2.450   2.516   2.538   2.479   2.573   2.632   2.461   2.527   2.363   2.507   2.543   2.636   2.601   2.671
    69.57    2.340   2.273   2.322   2.268   2.239   2.536   2.365   2.421   2.520   2.349   2.443   2.655   2.574   2.472   2.541   2.366   2.490   2.689   2.784   2.695   2.574   2.358   2.384   2.443   2.528   2.691   2.527   2.519   2.411   2.544   2.534   2.629   2.560   2.638   2.703   2.793
    61.00    2.400   2.232   2.208   2.098   2.326   2.358   2.314   2.403   2.693   2.523   2.576   2.705   2.597   2.532   2.424   2.464   2.433   2.489   2.432   2.579   2.560   2.459   2.399   2.497   2.643   2.595   2.636   2.642   2.359   2.361   2.451   2.541   2.634   2.699   2.682   2.536
    52.43    2.279   2.252   2.152   2.073   2.212   2.295   2.363   2.380   2.642   2.686   2.690   2.633   2.567   2.438   2.376   2.274   2.288   2.301   2.230   2.325   2.407   2.396   2.424   2.504   2.421   2.687   2.652   2.452   2.402   2.363   2.364   2.361   2.496   2.613   2.650   2.635
    43.86    2.271   2.246   2.251   2.166   2.295   2.239   2.291   2.441   2.460   2.517   2.621   2.564   2.537   2.482   2.255   2.340   2.283   2.336   1.990   2.097   2.186   2.297   2.288   2.297   2.340   2.617   2.721   2.613   2.424   2.473   2.480   2.320   2.364   2.513   2.624   2.721
    35.29    2.335   2.257   2.275   2.262   2.324   2.342   2.308   2.420   2.456   2.466   2.474   2.546   2.385   2.391   2.420   2.178   2.347   2.304   2.200   2.225   2.235   2.452   2.417   2.447   2.507   2.537   2.731   2.534   2.515   2.433   2.389   2.409   2.497   2.592   2.575   2.639
    26.71    2.231   2.359   2.393   2.378   2.304   2.297   2.205   2.283   2.390   2.337   2.527   2.584   2.524   2.413   2.344   2.390   2.425   2.432   2.401   2.409   2.406   2.319   2.468   2.360   2.488   2.425   2.605   2.423   2.503   2.377   2.432   2.597   2.461   2.459   2.357   2.450
    18.14    2.340   2.431   2.414   2.310   2.284   2.421   2.313   2.384   2.266   2.249   2.381   2.460   2.532   2.548   2.561   2.435   2.315   2.330   2.433   2.412   2.398   2.380   2.433   2.523   2.508   2.442   2.435   2.581   2.539   2.385   2.505   2.572   2.451   2.403   2.374   2.219
     9.57    2.489   2.400   2.415   2.309   2.357   2.364   2.382   2.482   2.304   2.199   2.347   2.497   2.379   2.525   2.480   2.415   2.326   2.451   2.464   2.494   2.473   2.508   2.505   2.495   2.577   2.511   2.534   2.523   2.604   2.503   2.473   2.602   2.514   2.415   2.234   2.164
     1.00    2.512   2.423   2.423   2.299   2.354   2.347   2.540   2.468   2.408   2.440   2.466   2.412   2.403   2.438   2.426   2.422   2.368   2.344   2.361   2.452   2.402   2.524   2.427   2.462   2.578   2.549   2.605   2.501   2.434   2.353   2.517   2.478   2.494   2.296   2.284   2.509

   Height   Standard deviation at grid points for the v component:
   301.00    2.526   2.526   2.526   2.526   2.526   2.526   2.526   2.526   2.526   2.526   2.526   2.526   2.526   2.526   2.526   2.526   2.526   2.526   2.526   2.526   2.526   2.526   2.526   2.526   2.526   2.526   2.526   2.526   2.526   2.526   2.526   2.526   2.526   2.526   2.526   2.526
   292.43    2.526   2.526   2.526   2.526   2.526   2.526   2.526   2.526   2.526   2.526   2.526   2.526   2.526   2.526   2.526   2.526   2.526   2.526   2.526   2.526   2.526   2.526   2.526   2.526   2.526   2.526   2.526   2.526   2.526   2.526   2.526   2.526   2.526   2.526   2.526   2.526
   283.86    2.526   2.526   2.526   2.526   2.526   2.526   2.526   2.526   2.526   2.526   2.526   2.526   2.526   2.526   2.526   2.526   2.526   2.526   2.526   2.526   2.526   2.526   2.526   2.526   2.526   2.526   2.526   2.526   2.526   2.526   2.526   2.526   2.526   2.526   2.526   2.526
   275.29    2.526   2.526   2.526   2.526   2.526   2.526   2.526   2.526   2.526   2.526   2.526   2.526   2.526   2.526   2.526   2.526   2.526   2.526   2.526   2.526   2.526   2.526   2.526   2.526   2.526   2.526   2.526   2.526   2.526   2.526   2.526   2.526   2.526   2.526   2.526   2.526
   266.71    2.526   2.526   2.526   2.526   2.526   2.526   2.526   2.526   2.526   2.526   2.526   2.526   2.526   2.526   2.526   2.526   2.526   2.526   2.526   2.526   2.526   2.526   2.526   2.526   2.526   2.526   2.526   2.526   2.526   2.526   2.526   2.526   2.526   2.526   2.526   2.526
   258.14    2.526   2.526   2.526   2.526   2.526   2.526   2.526   2.526   2.526   2.526   2.526   2.526   2.526   2.526   2.526   2.526   2.526   2.526   2.526   2.526   2.526   2.526   2.526   2.526   2.526   2.526   2.526   2.526   2.526   2.526   2.526   2.526   2.526   2.526   2.526   2.526
   249.57    2.526   2.526   2.526   2.526   2.526   2.526   2.526   2.526   2.526   2.526   2.526   2.526   2.526   2.526   2.526   2.526   2.526   2.526   2.526   2.526   2.526   2.526   2.526   2.526   2.526   2.526   2.526   2.526   2.526   2.526   2.526   2.526   2.526   2.526   2.526   2.526
   241.00    2.526   2.526   2.526   2.526   2.526   2.526   2.526   2.526   2.526   2.526   2.526   2.526   2.526   2.526   2.526   2.526   2.526   2.526   2.526   2.526   2.526   2.526   2.526   2.526   2.526   2.526   2.526   2.526   2.526   2.526   2.526   2.526   2.526   2.526   2.526   2.526
   232.43    2.526   2.526   2.526   2.526   2.526   2.526   2.526   2.526   2.526   2.526   2.526   2.526   2.526   2.526   2.526   2.526   2.526   2.526   2.526   2.526   2.526   2.526   2.526   2.526   2.526   2.526   2.526   2.526   2.526   2.526   2.526   2.526   2.526   2.526   2.526   2.526
   223.86    2.526   2.526   2.526   2.526   2.526   2.526   2.526   2.526   2.526   2.526   2.526   2.526   2.526   2.526   2.526   2.526   2.526   2.526   2.526   2.526   2.526   2.526   2.526   2.526   2.526   2.526   2.526   2.526   2.526   2.526   2.526   2.526   2.526   2.526   2.526   2.526
   215.29    2.526   2.526   2.526   2.526   2.526   2.526   2.526   2.526   2.526   2.526   2.526   2.526   2.526   2.526   2.526   2.526   2.526   2.526   2.526   2.526   2.526   2.526   2.526   2.526   2.526   2.526   2.526   2.526   2.526   2.526   2.526   2.526   2.526   2.526   2.526   2.526
   206.71    2.526   2.526   2.526   2.526   2.526   2.526   2.526   2.526   2.526   2.526   2.526   2.526   2.526   2.526   2.526   2.526   2.526   2.526   2.526   2.526   2.526   2.526   2.526   2.526   2.526   2.526   2.526   2.526   2.526   2.526   2.526   2.526   2.526   2.526   2.526   2.526
   198.14    2.526   2.526   2.526   2.526   2.526   2.526   2.526   2.526   2.526   2.526   2.526   2.526   2.526   2.526   2.526   2.526   2.526   2.526   2.526   2.526   2.526   2.526   2.526   2.526   2.526   2.526   2.526   2.526   2.526   2.526   2.526   2.526   2.526   2.526   2.526   2.526
   189.57    2.526   2.526   2.526   2.526   2.526   2.526   2.526   2.526   2.526   2.526   2.526   2.526   2.526   2.526   2.526   2.526   2.526   2.526   2.526   2.526   2.526   2.526   2.526   2.526   2.526   2.526   2.526   2.526   2.526   2.526   2.526   2.526   2.526   2.526   2.526   2.526
   181.00    2.526   2.526   2.526   2.526   2.526   2.526   2.526   2.526   2.526   2.526   2.526   2.526   2.526   2.526   2.526   2.526   2.526   2.526   2.526   2.526   2.526   2.526   2.526   2.526   2.526   2.526   2.526   2.526   2.526   2.526   2.526   2.526   2.526   2.526   2.526   2.526
   172.43    2.526   2.526   2.526   2.526   2.526   2.526   2.526   2.526   2.526   2.526   2.526   2.526   2.526   2.526   2.526   2.526   2.526   2.526   2.526   2.526   2.526   2.526   2.526   2.526   2.526   2.526   2.526   2.526   2.526   2.526   2.526   2.526   2.526   2.526   2.526   2.526
   163.86    2.526   2.526   2.526   2.526   2.526   2.526   2.526   2.526   2.526   2.526   2.526   2.526   2.526   2.526   2.526   2.526   2.526   2.526   2.526   2.526   2.526   2.526   2.526   2.526   2.526   2.526   2.526   2.526   2.526   2.526   2.526   2.526   2.526   2.526   2.526   2.526
   155.29    2.526   2.526   2.526   2.526   2.526   2.526   2.526   2.526   2.526   2.526   2.526   2.526   2.526   2.526   2.526   2.526   2.526   2.526   2.526   2.526   2.526   2.526   2.526   2.526   2.526   2.526   2.526   2.526   2.526   2.526   2.526   2.526   2.526   2.526   2.526   2.526
   146.71    2.526   2.526   2.526   2.526   2.526   2.526   2.526   2.526   2.526   2.526   2.526   2.526   2.526   2.526   2.526   2.526   2.526   2.526   2.526   2.526   2.526   2.526   2.526   2.526   2.526   2.526   2.526   2.526   2.526   2.526   2.526   2.526   2.526   2.526   2.526   2.526
   138.14    2.526   2.526   2.526   2.526   2.526   2.526   2.526   2.526   2.526   2.526   2.526   2.526   2.526   2.526   2.526   2.526   2.526   2.526   2.526   2.526   2.526   2.526   2.526   2.526   2.526   2.526   2.526   2.526   2.526   2.526   2.526   2.526   2.526   2.526   2.526   2.526
   129.57    2.526   2.526   2.526   2.526   2.526   2.526   2.526   2.526   2.526   2.526   2.526   2.526   2.526   2.526   2.526   2.526   2.526   2.526   2.526   2.526   2.526   2.526   2.526   2.526   2.526   2.526   2.526   2.526   2.526   2.526   2.526   2.526   2.526   2.526   2.526   2.526
   121.00    2.526   2.526   2.526   2.526   2.526   2.526   2.526   2.526   2.526   2.526   2.526   2.526   2.526   2.526   2.526   2.526   2.526   2.526   2.526   2.526   2.526   2.526   2.526   2.526   2.526   2.526   2.526   2.526   2.526   2.526   2.526   2.526   2.526   2.526   2.526   2.526
   112.43    2.526   2.526   2.526   2.526   2.526   2.526   2.526   2.526   2.526   2.526   2.526   2.526   2.526   2.526   2.526   2.526   2.526   2.526   2.526   2.526   2.526   2.526   2.526   2.526   2.526   2.526   2.526   2.526   2.526   2.526   2.526   2.526   2.526   2.526   2.526   2.526
   103.86    2.526   2.526   2.526   2.526   2.526   2.526   2.526   2.526   2.526   2.526   2.526   2.526   2.526   2.526   2.526   2.526   2.526   2.526   2.526   2.526   2.526   2.526   2.526   2.526   2.526   2.526   2.526   2.526   2.526   2.526   2.526   2.526   2.526   2.526   2.526   2.526
    95.29    2.526   2.526   2.526   2.526   2.526   2.526   2.526   2.526   2.526   2.526   2.526   2.526   2.526   2.526   2.526   2.526   2.526   2.526   2.526   2.526   2.526   2.526   2.526   2.526   2.526   2.526   2.526   2.526   2.526   2.526   2.526   2.526   2.526   2.526   2.526   2.526
    86.71    2.526   2.526   2.526   2.526   2.526   2.526   2.526   2.526   2.526   2.526   2.526   2.526   2.526   2.526   2.526   2.526   2.526   2.526   2.526   2.526   2.526   2.526   2.526   2.526   2.526   2.526   2.526   2.526   2.526   2.526   2.526   2.526   2.526   2.526   2.526   2.526
    78.14    2.526   2.526   2.526   2.526   2.526   2.526   2.526   2.526   2.526   2.526   2.526   2.526   2.526   2.526   2.526   2.526   2.526   2.526   2.526   2.526   2.526   2.526   2.526   2.526   2.526   2.526   2.526   2.526   2.526   2.526   2.526   2.526   2.526   2.526   2.526   2.526
    69.57    2.526   2.526   2.526   2.526   2.526   2.526   2.526   2.526   2.526   2.526   2.526   2.526   2.526   2.526   2.526   2.526   2.526   2.526   2.526   2.526   2.526   2.526   2.526   2.526   2.526   2.526   2.526   2.526   2.526   2.526   2.526   2.526   2.526   2.526   2.526   2.526
    61.00    2.526   2.526   2.526   2.526   2.526   2.526   2.526   2.526   2.526   2.526   2.526   2.526   2.526   2.526   2.526   2.526   2.526   2.526   2.526   2.526   2.526   2.526   2.526   2.526   2.526   2.526   2.526   2.526   2.526   2.526   2.526   2.526   2.526   2.526   2.526   2.526
    52.43    2.526   2.526   2.526   2.526   2.526   2.526   2.526   2.526   2.526   2.526   2.526   2.526   2.526   2.526   2.526   2.526   2.526   2.526   2.526   2.526   2.526   2.526   2.526   2.526   2.526   2.526   2.526   2.526   2.526   2.526   2.526   2.526   2.526   2.526   2.526   2.526
    43.86    2.526   2.526   2.526   2.526   2.526   2.526   2.526   2.526   2.526   2.526   2.526   2.526   2.526   2.526   2.526   2.526   2.526   2.526   2.526   2.526   2.526   2.526   2.526   2.526   2.526   2.526   2.526   2.526   2.526   2.526   2.526   2.526   2.526   2.526   2.526   2.526
    35.29    2.526   2.526   2.526   2.526   2.526   2.526   2.526   2.526   2.526   2.526   2.526   2.526   2.526   2.526   2.526   2.526   2.526   2.526   2.526   2.526   2.526   2.526   2.526   2.526   2.526   2.526   2.526   2.526   2.526   2.526   2.526   2.526   2.526   2.526   2.526   2.526
    26.71    2.526   2.526   2.526   2.526   2.526   2.526   2.526   2.526   2.526   2.526   2.526   2.526   2.526   2.526   2.526   2.526   2.526   2.526   2.526   2.526   2.526   2.526   2.526   2.526   2.526   2.526   2.526   2.526   2.526   2.526   2.526   2.526   2.526   2.526   2.526   2.526
    18.14    2.526   2.526   2.526   2.526   2.526   2.526   2.526   2.526   2.526   2.526   2.526   2.526   2.526   2.526   2.526   2.526   2.526   2.526   2.526   2.526   2.526   2.526   2.526   2.526   2.526   2.526   2.526   2.526   2.526   2.526   2.526   2.526   2.526   2.526   2.526   2.526
     9.57    2.526   2.526   2.526   2.526   2.526   2.526   2.526   2.526   2.526   2.526   2.526   2.526   2.526   2.526   2.526   2.526   2.526   2.526   2.526   2.526   2.526   2.526   2.526   2.526   2.526   2.526   2.526   2.526   2.526   2.526   2.526   2.526   2.526   2.526   2.526   2.526
     1.00    2.526   2.526   2.526   2.526   2.526   2.526   2.526   2.526   2.526   2.526   2.526   2.526   2.526   2.526   2.526   2.526   2.526   2.526   2.526   2.526   2.526   2.526   2.526   2.526   2.526   2.526   2.526   2.526   2.526   2.526   2.526   2.526   2.526   2.526   2.526   2.526

   Height   Standard deviation at grid points for the w component:
   301.00    2.526   2.526   2.526   2.526   2.526   2.526   2.526   2.526   2.526   2.526   2.526   2.526   2.526   2.526   2.526   2.526   2.526   2.526   2.526   2.526   2.526   2.526   2.526   2.526   2.526   2.526   2.526   2.526   2.526   2.526   2.526   2.526   2.526   2.526   2.526   2.526
   292.43    2.526   2.526   2.526   2.526   2.526   2.526   2.526   2.526   2.526   2.526   2.526   2.526   2.526   2.526   2.526   2.526   2.526   2.526   2.526   2.526   2.526   2.526   2.526   2.526   2.526   2.526   2.526   2.526   2.526   2.526   2.526   2.526   2.526   2.526   2.526   2.526
   283.86    2.526   2.526   2.526   2.526   2.526   2.526   2.526   2.526   2.526   2.526   2.526   2.526   2.526   2.526   2.526   2.526   2.526   2.526   2.526   2.526   2.526   2.526   2.526   2.526   2.526   2.526   2.526   2.526   2.526   2.526   2.526   2.526   2.526   2.526   2.526   2.526
   275.29    2.526   2.526   2.526   2.526   2.526   2.526   2.526   2.526   2.526   2.526   2.526   2.526   2.526   2.526   2.526   2.526   2.526   2.526   2.526   2.526   2.526   2.526   2.526   2.526   2.526   2.526   2.526   2.526   2.526   2.526   2.526   2.526   2.526   2.526   2.526   2.526
   266.71    2.526   2.526   2.526   2.526   2.526   2.526   2.526   2.526   2.526   2.526   2.526   2.526   2.526   2.526   2.526   2.526   2.526   2.526   2.526   2.526   2.526   2.526   2.526   2.526   2.526   2.526   2.526   2.526   2.526   2.526   2.526   2.526   2.526   2.526   2.526   2.526
   258.14    2.526   2.526   2.526   2.526   2.526   2.526   2.526   2.526   2.526   2.526   2.526   2.526   2.526   2.526   2.526   2.526   2.526   2.526   2.526   2.526   2.526   2.526   2.526   2.526   2.526   2.526   2.526   2.526   2.526   2.526   2.526   2.526   2.526   2.526   2.526   2.526
   249.57    2.526   2.526   2.526   2.526   2.526   2.526   2.526   2.526   2.526   2.526   2.526   2.526   2.526   2.526   2.526   2.526   2.526   2.526   2.526   2.526   2.526   2.526   2.526   2.526   2.526   2.526   2.526   2.526   2.526   2.526   2.526   2.526   2.526   2.526   2.526   2.526
   241.00    2.526   2.526   2.526   2.526   2.526   2.526   2.526   2.526   2.526   2.526   2.526   2.526   2.526   2.526   2.526   2.526   2.526   2.526   2.526   2.526   2.526   2.526   2.526   2.526   2.526   2.526   2.526   2.526   2.526   2.526   2.526   2.526   2.526   2.526   2.526   2.526
   232.43    2.526   2.526   2.526   2.526   2.526   2.526   2.526   2.526   2.526   2.526   2.526   2.526   2.526   2.526   2.526   2.526   2.526   2.526   2.526   2.526   2.526   2.526   2.526   2.526   2.526   2.526   2.526   2.526   2.526   2.526   2.526   2.526   2.526   2.526   2.526   2.526
   223.86    2.526   2.526   2.526   2.526   2.526   2.526   2.526   2.526   2.526   2.526   2.526   2.526   2.526   2.526   2.526   2.526   2.526   2.526   2.526   2.526   2.526   2.526   2.526   2.526   2.526   2.526   2.526   2.526   2.526   2.526   2.526   2.526   2.526   2.526   2.526   2.526
   215.29    2.526   2.526   2.526   2.526   2.526   2.526   2.526   2.526   2.526   2.526   2.526   2.526   2.526   2.526   2.526   2.526   2.526   2.526   2.526   2.526   2.526   2.526   2.526   2.526   2.526   2.526   2.526   2.526   2.526   2.526   2.526   2.526   2.526   2.526   2.526   2.526
   206.71    2.526   2.526   2.526   2.526   2.526   2.526   2.526   2.526   2.526   2.526   2.526   2.526   2.526   2.526   2.526   2.526   2.526   2.526   2.526   2.526   2.526   2.526   2.526   2.526   2.526   2.526   2.526   2.526   2.526   2.526   2.526   2.526   2.526   2.526   2.526   2.526
   198.14    2.526   2.526   2.526   2.526   2.526   2.526   2.526   2.526   2.526   2.526   2.526   2.526   2.526   2.526   2.526   2.526   2.526   2.526   2.526   2.526   2.526   2.526   2.526   2.526   2.526   2.526   2.526   2.526   2.526   2.526   2.526   2.526   2.526   2.526   2.526   2.526
   189.57    2.526   2.526   2.526   2.526   2.526   2.526   2.526   2.526   2.526   2.526   2.526   2.526   2.526   2.526   2.526   2.526   2.526   2.526   2.526   2.526   2.526   2.526   2.526   2.526   2.526   2.526   2.526   2.526   2.526   2.526   2.526   2.526   2.526   2.526   2.526   2.526
   181.00    2.526   2.526   2.526   2.526   2.526   2.526   2.526   2.526   2.526   2.526   2.526   2.526   2.526   2.526   2.526   2.526   2.526   2.526   2.526   2.526   2.526   2.526   2.526   2.526   2.526   2.526   2.526   2.526   2.526   2.526   2.526   2.526   2.526   2.526   2.526   2.526
   172.43    2.526   2.526   2.526   2.526   2.526   2.526   2.526   2.526   2.526   2.526   2.526   2.526   2.526   2.526   2.526   2.526   2.526   2.526   2.526   2.526   2.526   2.526   2.526   2.526   2.526   2.526   2.526   2.526   2.526   2.526   2.526   2.526   2.526   2.526   2.526   2.526
   163.86    2.526   2.526   2.526   2.526   2.526   2.526   2.526   2.526   2.526   2.526   2.526   2.526   2.526   2.526   2.526   2.526   2.526   2.526   2.526   2.526   2.526   2.526   2.526   2.526   2.526   2.526   2.526   2.526   2.526   2.526   2.526   2.526   2.526   2.526   2.526   2.526
   155.29    2.526   2.526   2.526   2.526   2.526   2.526   2.526   2.526   2.526   2.526   2.526   2.526   2.526   2.526   2.526   2.526   2.526   2.526   2.526   2.526   2.526   2.526   2.526   2.526   2.526   2.526   2.526   2.526   2.526   2.526   2.526   2.526   2.526   2.526   2.526   2.526
   146.71    2.526   2.526   2.526   2.526   2.526   2.526   2.526   2.526   2.526   2.526   2.526   2.526   2.526   2.526   2.526   2.526   2.526   2.526   2.526   2.526   2.526   2.526   2.526   2.526   2.526   2.526   2.526   2.526   2.526   2.526   2.526   2.526   2.526   2.526   2.526   2.526
   138.14    2.526   2.526   2.526   2.526   2.526   2.526   2.526   2.526   2.526   2.526   2.526   2.526   2.526   2.526   2.526   2.526   2.526   2.526   2.526   2.526   2.526   2.526   2.526   2.526   2.526   2.526   2.526   2.526   2.526   2.526   2.526   2.526   2.526   2.526   2.526   2.526
   129.57    2.526   2.526   2.526   2.526   2.526   2.526   2.526   2.526   2.526   2.526   2.526   2.526   2.526   2.526   2.526   2.526   2.526   2.526   2.526   2.526   2.526   2.526   2.526   2.526   2.526   2.526   2.526   2.526   2.526   2.526   2.526   2.526   2.526   2.526   2.526   2.526
   121.00    2.526   2.526   2.526   2.526   2.526   2.526   2.526   2.526   2.526   2.526   2.526   2.526   2.526   2.526   2.526   2.526   2.526   2.526   2.526   2.526   2.526   2.526   2.526   2.526   2.526   2.526   2.526   2.526   2.526   2.526   2.526   2.526   2.526   2.526   2.526   2.526
   112.43    2.526   2.526   2.526   2.526   2.526   2.526   2.526   2.526   2.526   2.526   2.526   2.526   2.526   2.526   2.526   2.526   2.526   2.526   2.526   2.526   2.526   2.526   2.526   2.526   2.526   2.526   2.526   2.526   2.526   2.526   2.526   2.526   2.526   2.526   2.526   2.526
   103.86    2.526   2.526   2.526   2.526   2.526   2.526   2.526   2.526   2.526   2.526   2.526   2.526   2.526   2.526   2.526   2.526   2.526   2.526   2.526   2.526   2.526   2.526   2.526   2.526   2.526   2.526   2.526   2.526   2.526   2.526   2.526   2.526   2.526   2.526   2.526   2.526
    95.29    2.526   2.526   2.526   2.526   2.526   2.526   2.526   2.526   2.526   2.526   2.526   2.526   2.526   2.526   2.526   2.526   2.526   2.526   2.526   2.526   2.526   2.526   2.526   2.526   2.526   2.526   2.526   2.526   2.526   2.526   2.526   2.526   2.526   2.526   2.526   2.526
    86.71    2.526   2.526   2.526   2.526   2.526   2.526   2.526   2.526   2.526   2.526   2.526   2.526   2.526   2.526   2.526   2.526   2.526   2.526   2.526   2.526   2.526   2.526   2.526   2.526   2.526   2.526   2.526   2.526   2.526   2.526   2.526   2.526   2.526   2.526   2.526   2.526
    78.14    2.526   2.526   2.526   2.526   2.526   2.526   2.526   2.526   2.526   2.526   2.526   2.526   2.526   2.526   2.526   2.526   2.526   2.526   2.526   2.526   2.526   2.526   2.526   2.526   2.526   2.526   2.526   2.526   2.526   2.526   2.526   2.526   2.526   2.526   2.526   2.526
    69.57    2.526   2.526   2.526   2.526   2.526   2.526   2.526   2.526   2.526   2.526   2.526   2.526   2.526   2.526   2.526   2.526   2.526   2.526   2.526   2.526   2.526   2.526   2.526   2.526   2.526   2.526   2.526   2.526   2.526   2.526   2.526   2.526   2.526   2.526   2.526   2.526
    61.00    2.526   2.526   2.526   2.526   2.526   2.526   2.526   2.526   2.526   2.526   2.526   2.526   2.526   2.526   2.526   2.526   2.526   2.526   2.526   2.526   2.526   2.526   2.526   2.526   2.526   2.526   2.526   2.526   2.526   2.526   2.526   2.526   2.526   2.526   2.526   2.526
    52.43    2.526   2.526   2.526   2.526   2.526   2.526   2.526   2.526   2.526   2.526   2.526   2.526   2.526   2.526   2.526   2.526   2.526   2.526   2.526   2.526   2.526   2.526   2.526   2.526   2.526   2.526   2.526   2.526   2.526   2.526   2.526   2.526   2.526   2.526   2.526   2.526
    43.86    2.526   2.526   2.526   2.526   2.526   2.526   2.526   2.526   2.526   2.526   2.526   2.526   2.526   2.526   2.526   2.526   2.526   2.526   2.526   2.526   2.526   2.526   2.526   2.526   2.526   2.526   2.526   2.526   2.526   2.526   2.526   2.526   2.526   2.526   2.526   2.526
    35.29    2.526   2.526   2.526   2.526   2.526   2.526   2.526   2.526   2.526   2.526   2.526   2.526   2.526   2.526   2.526   2.526   2.526   2.526   2.526   2.526   2.526   2.526   2.526   2.526   2.526   2.526   2.526   2.526   2.526   2.526   2.526   2.526   2.526   2.526   2.526   2.526
    26.71    2.526   2.526   2.526   2.526   2.526   2.526   2.526   2.526   2.526   2.526   2.526   2.526   2.526   2.526   2.526   2.526   2.526   2.526   2.526   2.526   2.526   2.526   2.526   2.526   2.526   2.526   2.526   2.526   2.526   2.526   2.526   2.526   2.526   2.526   2.526   2.526
    18.14    2.526   2.526   2.526   2.526   2.526   2.526   2.526   2.526   2.526   2.526   2.526   2.526   2.526   2.526   2.526   2.526   2.526   2.526   2.526   2.526   2.526   2.526   2.526   2.526   2.526   2.526   2.526   2.526   2.526   2.526   2.526   2.526   2.526   2.526   2.526   2.526
     9.57    2.526   2.526   2.526   2.526   2.526   2.526   2.526   2.526   2.526   2.526   2.526   2.526   2.526   2.526   2.526   2.526   2.526   2.526   2.526   2.526   2.526   2.526   2.526   2.526   2.526   2.526   2.526   2.526   2.526   2.526   2.526   2.526   2.526   2.526   2.526   2.526
     1.00    2.526   2.526   2.526   2.526   2.526   2.526   2.526   2.526   2.526   2.526   2.526   2.526   2.526   2.526   2.526   2.526   2.526   2.526   2.526   2.526   2.526   2.526   2.526   2.526   2.526   2.526   2.526   2.526   2.526   2.526   2.526   2.526   2.526   2.526   2.526   2.526

   Mean standard deviation across all grid points:
      u component:    2.483 m/s
      v component:    2.526 m/s
      w component:    2.526 m/s


U-component (X) statistics from the interpolated hub point:

   Mean =  13.9623 m/s
   TI   =  15.7269 %


Normalizing Parameters for Binary Data (approximate statistics):

   UBar  =  13.9632 m/s
   TI(u) =  17.1978 %
   TI(v) =  18.0898 %
   TI(w) =  18.0898 %

   Height Offset =   0.0000 m
   Grid Base     =   1.0000 m

Creating a PERIODIC output file.


Processing complete.  116.23 CPU seconds used.
