
This summary file was generated by TurbSim (v2.00.07a-bjj, 14-Jun-2016) on 03-Nov-2023 at 03:24:08.


Runtime Options:

      4301  Random seed #1
    RANLUX  Type of random number generator
         F  Output binary HH turbulence parameters?
         F  Output formatted turbulence parameters?
         F  Output AeroDyn HH files?
         F  Output AeroDyn FF files?
         T  Output BLADED FF files?
         F  Output tower data?
         F  Output formatted FF files?
         F  Output coherent turbulence time step file?
         T  Clockwise rotation when looking downwind?
 0 -  NONE  IEC turbulence models scaled to exact specified standard deviation


Turbine/Model Specifications:

        36  Vertical grid-point matrix dimension
        36  Horizontal grid-point matrix dimension
     0.100  Time step [seconds]
   660.000  Analysis time [seconds]
   660.000  Usable output time [seconds]
   151.000  Hub height [m]
   300.000  Grid height [m]
   300.000  Grid width [m]
     0.000  Vertical flow angle [degrees]
     0.000  Horizontal flow angle [degrees]


Meteorological Boundary Conditions:

    IECVKM  IEC von Karman spectral model
         1  IEC standard: IEC 61400-1 Ed. 3: 2005
         A  IEC turbulence characteristic
       NTM  IEC Normal Turbulence Model
       N/A  IEC Extreme Turbulence Model (ETM) "c" parameter [m/s]
       PL   Wind profile type
   153.000  Reference height [m]
    19.000  Reference wind speed [m/s]
       N/A  Jet height [m]
     0.200  Power law exponent
     0.030  Surface roughness length [m]


Non-IEC Meteorological Boundary Conditions:

       N/A  Site latitude [degrees]
       N/A  Gradient Richardson number
       N/A  Friction or shear velocity [m/s]
       N/A  Mixing layer depth [m]
       N/A  Mean hub u'w' Reynolds stress
       N/A  Mean hub u'v' Reynolds stress
       N/A  Mean hub v'w' Reynolds stress


Spatial Coherence Models:

       IEC  u-component coherence model
      NONE  v-component coherence model
      NONE  w-component coherence model
(   12.000, 0.353E-03)  u-component coherence parameters
                   N/A  v-component coherence parameters
                   N/A  w-component coherence parameters
       N/A  Coherence exponent


You have requested that the following file(s) be generated:

   G:\2023\OpenWECDV1.0.0_x64\BaseLIne\wind\WindL_V_19_seed_4301.wnd (AeroDyn/BLADED full-field wnd file)


Turbulence Simulation Scaling Parameter Summary:

   Turbulence model used                            =  IEC von Karman
   Turbulence characteristic                        =  A
   IEC turbulence type                              =  Normal Turbulence Model
   IEC standard                                     =  IEC 61400-1 Ed. 3: 2005
   Mean wind speed at hub height                    =   18.950 m/s
   Expected value of turbulence intensity at 15 m/s =   16.000%
   Characteristic value of standard deviation       =    3.170 m/s
   Turbulence scale                                 =   42.000 m
   Isotropic integral scale                         =  147.000 m
   Characteristic value of hub turbulence intensity =   16.728%
   Gradient Richardson number                       =    0.000

   Wind profile type                                =  Power law
   Power law exponent                               =    0.200
   Mean shear across rotor disk                     =    0.049 (m/s)/m
   Assumed rotor diameter                           =  300.000 m
   Surface roughness length                         =    0.030 m

   Nyquist frequency of turbulent wind field        =    5.000 Hz

   Number of time steps in the FFT                  =     6600
   Number of time steps output                      =     6600
   Number of points simulated                       =     1297


Mean Flow Angles:

   Vertical   =   0.0 degrees
   Horizontal =   0.0 degrees

Mean Wind Speed Profile:

   Height    Wind Speed   Horizontal Angle  Vertical Angle  U-comp (X)   V-comp (Y)   W-comp (Z)
     (m)        (m/s)         (degrees)       (degrees)       (m/s)        (m/s)        (m/s)   
   ------    ----------   ----------------  --------------  ----------   ----------   ----------
    301.0       21.75            0.00            0.00         21.75         0.00         0.00
    292.4       21.63            0.00            0.00         21.63         0.00         0.00
    283.9       21.50            0.00            0.00         21.50         0.00         0.00
    275.3       21.37            0.00            0.00         21.37         0.00         0.00
    266.7       21.23            0.00            0.00         21.23         0.00         0.00
    258.1       21.10            0.00            0.00         21.10         0.00         0.00
    249.6       20.95            0.00            0.00         20.95         0.00         0.00
    241.0       20.81            0.00            0.00         20.81         0.00         0.00
    232.4       20.66            0.00            0.00         20.66         0.00         0.00
    223.9       20.50            0.00            0.00         20.50         0.00         0.00
    215.3       20.34            0.00            0.00         20.34         0.00         0.00
    206.7       20.18            0.00            0.00         20.18         0.00         0.00
    198.1       20.01            0.00            0.00         20.01         0.00         0.00
    189.6       19.83            0.00            0.00         19.83         0.00         0.00
    181.0       19.65            0.00            0.00         19.65         0.00         0.00
    172.4       19.46            0.00            0.00         19.46         0.00         0.00
    163.9       19.26            0.00            0.00         19.26         0.00         0.00
    155.3       19.06            0.00            0.00         19.06         0.00         0.00
    151.0       18.95            0.00            0.00         18.95         0.00         0.00
    146.7       18.84            0.00            0.00         18.84         0.00         0.00
    138.1       18.62            0.00            0.00         18.62         0.00         0.00
    129.6       18.38            0.00            0.00         18.38         0.00         0.00
    121.0       18.13            0.00            0.00         18.13         0.00         0.00
    112.4       17.86            0.00            0.00         17.86         0.00         0.00
    103.9       17.58            0.00            0.00         17.58         0.00         0.00
     95.3       17.28            0.00            0.00         17.28         0.00         0.00
     86.7       16.96            0.00            0.00         16.96         0.00         0.00
     78.1       16.61            0.00            0.00         16.61         0.00         0.00
     69.6       16.23            0.00            0.00         16.23         0.00         0.00
     61.0       15.81            0.00            0.00         15.81         0.00         0.00
     52.4       15.34            0.00            0.00         15.34         0.00         0.00
     43.9       14.80            0.00            0.00         14.80         0.00         0.00
     35.3       14.17            0.00            0.00         14.17         0.00         0.00
     26.7       13.40            0.00            0.00         13.40         0.00         0.00
     18.1       12.40            0.00            0.00         12.40         0.00         0.00
      9.6       10.91            0.00            0.00         10.91         0.00         0.00
      1.0        6.95            0.00            0.00          6.95         0.00         0.00


Harvested Random Seeds after Generation of the Random Numbers:

    119307688 K 1
            0 K 2


Hub-Height Simulated Turbulence Statistical Summary:

   Type of Wind        Min (m/s)   Mean (m/s)    Max (m/s)  Sigma (m/s)       TI (%)
   ----------------    ---------   ----------    ---------  -----------       ------
   Longitudinal (u)         8.03        18.95        29.09        3.254       17.170
   Lateral (v)            -11.29        -0.00        10.42        3.115       16.436
   Vertical (w)            -9.86         0.00        15.12        3.115       16.436
   U component              8.03        18.95        29.09        3.254       17.170
   V component            -11.29        -0.00        10.42        3.115       16.436
   W component             -9.86         0.00        15.12        3.115       16.436
   Horizontal (U&V)         8.06        19.20        29.28        3.257       16.959
   Total                    8.19        19.45        30.37        3.306       17.002

                       Min Reynolds     Mean Reynolds    Max Reynolds    Correlation
   Product             Stress (m/s)^2   Stress (m/s)^2   Stress (m/s)^2  Coefficient
   ----------------    --------------   --------------   --------------  -----------
   u'w'                    -65.925             0.855           106.079         0.084
   u'v'                    -60.191             0.015            59.758         0.002
   v'w'                    -55.579             0.588            53.200         0.061


   Friction Velocity (Ustar)  =      0.925 m/s
   Maximum Instantaneous TKE  =    132.482 (m/s)^2
   Maximum Instantaneous CTKE =     55.002 (m/s)^2


Grid Point Variance Summary:

   Y-coord -150.00 -141.43 -132.86 -124.29 -115.71 -107.14  -98.57  -90.00  -81.43  -72.86  -64.29  -55.71  -47.14  -38.57  -30.00  -21.43  -12.86   -4.29    4.29   12.86   21.43   30.00   38.57   47.14   55.71   64.29   72.86   81.43   90.00   98.57  107.14  115.71  124.29  132.86  141.43  150.00

   Height   Standard deviation at grid points for the u component:
   301.00    3.188   3.135   3.261   3.165   3.151   3.364   3.184   3.195   3.260   3.507   3.446   3.354   3.251   3.065   2.919   2.802   2.722   3.037   3.115   2.984   2.928   2.916   2.999   3.154   3.025   2.793   2.574   2.783   2.996   2.740   2.745   2.893   3.031   3.032   3.161   3.052
   292.43    3.086   3.196   3.175   3.150   2.931   3.185   3.147   3.185   3.410   3.473   3.271   3.328   3.234   3.152   2.976   2.857   2.698   2.882   2.899   2.904   2.776   2.791   2.949   2.994   2.911   2.773   2.760   2.848   2.957   2.848   2.754   2.862   2.991   2.946   3.000   2.869
   283.86    3.101   2.959   2.862   2.846   2.970   2.906   3.047   3.125   3.311   3.331   3.276   3.306   3.258   3.041   2.909   2.818   2.865   2.818   2.810   2.926   2.905   3.041   2.869   2.889   2.833   2.671   2.851   2.921   2.910   2.944   2.887   2.808   2.978   2.973   2.979   2.931
   275.29    2.840   2.886   2.959   3.019   2.862   2.894   2.983   3.228   3.347   3.333   3.267   3.403   3.206   3.116   2.975   3.024   2.857   2.809   2.893   2.909   2.920   2.988   2.834   2.940   2.711   2.723   2.852   3.019   2.906   2.980   2.906   2.843   2.869   3.006   2.676   2.719
   266.71    2.914   2.886   3.022   2.951   3.023   2.988   3.154   3.252   3.305   3.344   3.374   3.378   3.318   3.184   2.968   2.941   3.039   2.935   2.890   2.961   3.047   2.856   2.808   2.954   3.008   2.914   2.836   2.966   2.978   2.913   2.850   2.829   2.801   2.881   2.811   2.962
   258.14    2.830   2.911   2.964   3.013   3.082   3.127   3.168   3.204   3.207   3.337   3.331   3.308   3.292   3.187   3.269   3.237   3.148   3.018   3.059   2.939   3.089   2.902   2.967   2.937   2.948   2.987   3.009   3.102   3.007   3.024   2.945   2.803   2.880   3.001   2.922   2.955
   249.57    2.864   2.939   3.216   3.262   3.197   3.097   3.218   3.220   3.374   3.455   3.270   3.222   3.345   3.330   3.394   3.413   3.036   2.953   3.045   2.974   3.043   2.916   2.947   3.082   3.035   3.010   3.056   2.900   2.938   2.994   2.897   2.727   2.925   2.838   2.922   2.960
   241.00    2.902   3.068   3.223   3.263   3.077   3.189   3.168   3.026   3.161   3.272   3.352   3.376   3.381   3.486   3.461   3.426   3.230   3.341   3.220   3.091   3.097   3.087   2.988   3.012   2.968   2.934   2.938   3.124   3.112   3.084   2.969   3.044   2.864   2.911   3.067   3.157
   232.43    2.949   3.179   2.989   3.112   3.114   3.147   3.123   3.004   2.933   3.091   3.149   3.266   3.363   3.478   3.348   3.378   3.373   3.228   3.308   3.155   3.097   3.225   2.909   2.874   3.023   2.971   2.733   2.889   3.054   3.065   2.887   2.905   2.988   2.956   3.103   3.094
   223.86    2.967   3.012   3.224   2.986   3.076   3.005   3.110   3.064   3.160   2.982   3.007   3.104   3.389   3.452   3.428   3.334   3.258   3.277   3.332   3.264   3.179   3.278   3.220   3.050   2.955   3.004   2.832   2.790   2.821   2.928   2.910   2.911   2.888   2.921   3.082   3.069
   215.29    2.856   2.977   3.137   3.055   3.146   3.176   3.097   3.195   3.143   3.052   2.962   3.028   3.282   3.520   3.471   3.300   3.284   3.290   3.037   3.185   3.165   3.170   3.034   2.963   2.977   2.776   2.756   2.628   2.705   2.818   2.981   2.868   2.775   3.006   3.024   2.839
   206.71    2.859   2.914   3.027   3.200   3.376   3.241   3.094   3.113   3.098   2.943   2.973   3.092   3.264   3.323   3.329   3.146   3.196   3.107   3.089   3.223   3.137   3.042   3.009   2.995   3.020   2.841   2.790   2.755   2.751   2.748   2.823   2.854   2.870   3.020   3.049   2.871
   198.14    2.852   2.989   3.135   3.171   3.246   3.110   3.242   3.025   3.165   3.258   3.195   3.189   3.309   3.148   3.085   3.016   3.102   3.133   3.190   3.252   3.107   3.112   3.098   3.084   3.012   2.919   2.797   2.807   2.776   2.648   2.709   2.749   2.818   2.922   2.963   2.858
   189.57    2.882   2.964   3.064   3.182   3.339   3.182   3.089   3.078   3.139   3.186   2.996   3.134   3.321   3.102   3.024   3.041   3.146   2.991   3.156   3.398   3.211   3.068   3.017   2.980   2.734   2.811   2.876   2.794   2.973   2.798   2.604   2.643   2.786   3.108   2.936   3.006
   181.00    2.886   3.045   3.047   3.108   3.146   3.085   2.955   3.061   2.989   3.154   3.275   3.273   3.188   3.072   3.154   3.321   3.235   3.185   3.242   3.303   3.217   3.112   3.122   2.917   2.792   2.793   2.850   2.813   2.858   2.900   2.702   2.694   2.677   3.015   3.000   2.936
   172.43    2.972   2.993   3.034   3.166   3.118   2.991   2.865   2.884   2.953   3.279   3.380   3.185   2.990   3.138   2.982   3.284   3.338   3.158   3.328   3.129   3.142   3.017   3.093   2.831   2.813   2.778   2.695   2.522   2.665   2.764   2.705   2.644   2.751   2.971   2.958   2.849
   163.86    3.133   3.121   2.944   2.990   2.936   3.027   2.952   2.963   3.125   3.279   3.104   3.018   2.942   2.961   3.034   3.212   3.391   3.210   3.296   3.249   3.207   3.118   2.837   2.852   2.805   2.726   2.607   2.548   2.622   2.652   2.604   2.692   2.710   2.772   2.835   2.953
   155.29    3.129   3.029   2.885   2.896   2.827   3.026   2.999   2.981   3.259   3.244   3.054   2.968   3.008   2.910   3.027   3.213   3.249   3.315   3.285   3.321   3.344   3.095   2.794   2.760   2.775   2.753   2.664   2.534   2.510   2.504   2.663   2.814   2.828   2.831   2.841   2.818
   146.71    2.949   2.850   2.628   2.825   2.783   2.963   3.064   2.992   2.934   3.050   3.012   2.814   2.870   2.919   3.075   2.981   3.132   3.223   3.213   3.393   3.299   3.104   2.925   2.998   2.873   2.756   2.779   2.640   2.559   2.662   2.770   2.873   2.977   3.076   2.967   2.849
   138.14    2.918   2.981   2.947   2.824   2.916   2.893   2.980   3.084   2.992   3.068   3.013   2.910   2.800   2.922   3.167   3.164   3.183   3.227   3.340   3.379   3.214   3.202   3.064   2.882   2.887   2.882   2.837   2.653   2.668   2.676   2.861   2.896   2.896   2.911   2.907   2.826
   129.57    2.795   2.934   2.986   2.773   2.882   3.021   2.933   2.859   2.976   2.937   2.851   2.920   2.787   3.041   3.183   3.375   3.167   3.227   3.275   3.173   3.269   3.166   3.005   2.817   2.998   2.877   2.837   2.738   2.809   2.882   2.852   2.856   2.751   2.851   2.903   2.826
   121.00    2.761   2.822   2.729   2.853   3.026   3.131   2.973   2.892   2.859   3.004   2.916   2.859   2.878   2.997   3.312   3.229   3.055   3.175   3.137   3.111   3.183   3.009   2.924   2.912   2.953   2.818   2.803   2.754   2.777   2.813   2.848   2.748   2.905   2.727   2.815   2.959
   112.43    2.946   2.751   2.795   2.848   2.963   2.860   2.929   2.846   2.839   2.874   2.658   2.728   3.053   3.254   3.314   3.218   3.223   3.100   2.941   3.004   3.020   2.989   2.935   2.892   2.927   2.873   2.893   2.865   2.844   2.981   2.902   2.799   2.900   2.775   2.831   2.830
   103.86    2.960   2.807   2.849   2.835   2.822   2.890   2.854   2.878   2.874   2.818   2.724   2.875   3.071   3.323   3.355   3.325   3.087   3.118   2.903   2.960   2.965   2.955   3.015   2.968   2.910   2.946   2.747   2.883   2.810   2.927   2.862   2.849   2.780   2.931   3.032   2.859
    95.29    2.785   2.800   2.860   2.750   2.922   2.928   2.946   2.804   2.893   3.022   3.056   2.965   2.881   3.074   3.132   3.022   3.083   3.114   2.989   3.073   2.892   2.905   2.998   2.898   2.805   2.745   2.730   2.734   2.749   2.784   2.846   2.975   3.028   3.152   2.953   2.934
    86.71    2.750   2.789   2.864   2.699   2.847   2.822   2.971   2.947   2.910   2.974   2.983   3.059   3.003   3.054   3.044   3.103   3.025   3.150   3.026   2.906   2.940   3.101   2.885   2.904   2.739   2.654   2.689   2.813   2.917   2.941   2.942   2.957   2.997   2.993   2.895   2.924
    78.14    2.883   2.995   2.854   2.865   2.852   2.939   2.869   3.026   2.922   3.014   2.934   2.757   2.868   3.102   3.028   2.929   2.898   3.041   2.831   2.879   2.835   2.933   2.934   2.838   2.763   2.814   2.795   2.966   2.928   2.932   3.029   3.019   2.886   2.923   2.939   2.848
    69.57    2.991   2.959   2.892   2.857   2.983   2.939   2.688   2.831   2.949   3.037   2.987   2.872   2.850   2.812   2.945   3.148   3.158   3.007   2.976   2.988   2.980   2.846   2.771   2.829   2.741   2.761   2.880   2.935   2.920   2.934   2.974   2.997   3.069   3.057   2.964   2.852
    61.00    3.080   2.871   2.835   2.741   2.826   2.775   2.851   2.820   2.892   3.041   3.027   2.952   2.932   2.952   3.042   3.139   3.040   3.028   3.082   3.171   2.947   3.022   2.850   2.828   2.795   2.731   2.949   2.862   3.004   3.081   3.203   3.255   3.133   3.186   3.007   2.856
    52.43    2.943   2.905   2.755   2.710   2.716   2.737   2.793   2.992   3.079   3.076   3.050   2.981   2.978   3.103   3.216   3.173   3.057   3.265   3.258   3.170   2.913   2.867   2.802   2.587   2.685   2.879   2.828   2.994   2.912   2.934   3.187   3.332   3.452   3.328   3.137   2.875
    43.86    2.968   3.008   2.728   2.818   2.881   2.969   2.922   2.969   2.990   3.088   3.107   3.126   3.149   3.127   3.108   3.198   3.155   3.148   3.370   3.309   2.941   2.901   2.712   2.608   2.791   2.857   2.960   2.998   3.080   3.033   3.241   3.322   3.548   3.457   3.137   2.829
    35.29    2.944   2.908   2.889   2.781   2.771   2.953   2.978   3.026   2.970   2.918   3.055   3.094   2.998   3.148   3.068   3.122   3.046   3.152   3.191   3.061   3.070   3.042   2.854   2.761   2.885   2.897   2.819   2.903   3.096   3.258   3.298   3.444   3.326   3.347   3.229   3.083
    26.71    2.899   2.946   2.977   2.864   2.931   2.940   2.950   3.056   3.022   2.862   2.965   2.999   3.109   3.061   3.140   3.056   2.964   3.040   2.967   2.893   3.049   3.076   3.047   3.079   2.949   2.891   2.978   3.118   3.207   3.240   3.291   3.356   3.442   3.391   3.300   3.148
    18.14    2.982   2.974   2.813   2.899   2.951   3.036   2.994   2.989   3.091   3.011   3.098   3.002   2.954   3.187   3.098   3.050   2.765   2.989   3.117   3.029   3.054   3.088   3.118   3.244   3.163   3.136   3.161   3.121   3.218   3.191   3.163   3.187   3.363   3.436   3.354   3.250
     9.57    2.922   2.936   2.883   2.741   2.895   3.033   3.021   2.984   2.844   3.031   3.034   2.953   3.033   3.144   3.249   2.989   2.937   2.851   3.091   3.132   3.022   3.061   3.219   3.325   3.158   3.124   3.120   3.157   3.022   2.928   3.074   3.101   3.265   3.331   3.341   3.266
     1.00    3.106   3.110   3.046   2.859   2.857   3.008   2.775   2.934   2.816   3.063   3.206   3.028   3.086   3.127   3.192   3.036   2.799   3.107   3.202   3.257   3.379   3.091   3.259   3.303   3.155   3.105   3.048   3.023   3.058   3.055   3.047   3.074   3.065   3.092   3.032   2.976

   Height   Standard deviation at grid points for the v component:
   301.00    3.115   3.115   3.115   3.115   3.115   3.115   3.115   3.115   3.115   3.115   3.115   3.115   3.115   3.115   3.115   3.115   3.115   3.115   3.115   3.115   3.115   3.115   3.115   3.115   3.115   3.115   3.115   3.115   3.115   3.115   3.115   3.115   3.115   3.115   3.115   3.115
   292.43    3.115   3.115   3.115   3.115   3.115   3.115   3.115   3.115   3.115   3.115   3.115   3.115   3.115   3.115   3.115   3.115   3.115   3.115   3.115   3.115   3.115   3.115   3.115   3.115   3.115   3.115   3.115   3.115   3.115   3.115   3.115   3.115   3.115   3.115   3.115   3.115
   283.86    3.115   3.115   3.115   3.115   3.115   3.115   3.115   3.115   3.115   3.115   3.115   3.115   3.115   3.115   3.115   3.115   3.115   3.115   3.115   3.115   3.115   3.115   3.115   3.115   3.115   3.115   3.115   3.115   3.115   3.115   3.115   3.115   3.115   3.115   3.115   3.115
   275.29    3.115   3.115   3.115   3.115   3.115   3.115   3.115   3.115   3.115   3.115   3.115   3.115   3.115   3.115   3.115   3.115   3.115   3.115   3.115   3.115   3.115   3.115   3.115   3.115   3.115   3.115   3.115   3.115   3.115   3.115   3.115   3.115   3.115   3.115   3.115   3.115
   266.71    3.115   3.115   3.115   3.115   3.115   3.115   3.115   3.115   3.115   3.115   3.115   3.115   3.115   3.115   3.115   3.115   3.115   3.115   3.115   3.115   3.115   3.115   3.115   3.115   3.115   3.115   3.115   3.115   3.115   3.115   3.115   3.115   3.115   3.115   3.115   3.115
   258.14    3.115   3.115   3.115   3.115   3.115   3.115   3.115   3.115   3.115   3.115   3.115   3.115   3.115   3.115   3.115   3.115   3.115   3.115   3.115   3.115   3.115   3.115   3.115   3.115   3.115   3.115   3.115   3.115   3.115   3.115   3.115   3.115   3.115   3.115   3.115   3.115
   249.57    3.115   3.115   3.115   3.115   3.115   3.115   3.115   3.115   3.115   3.115   3.115   3.115   3.115   3.115   3.115   3.115   3.115   3.115   3.115   3.115   3.115   3.115   3.115   3.115   3.115   3.115   3.115   3.115   3.115   3.115   3.115   3.115   3.115   3.115   3.115   3.115
   241.00    3.115   3.115   3.115   3.115   3.115   3.115   3.115   3.115   3.115   3.115   3.115   3.115   3.115   3.115   3.115   3.115   3.115   3.115   3.115   3.115   3.115   3.115   3.115   3.115   3.115   3.115   3.115   3.115   3.115   3.115   3.115   3.115   3.115   3.115   3.115   3.115
   232.43    3.115   3.115   3.115   3.115   3.115   3.115   3.115   3.115   3.115   3.115   3.115   3.115   3.115   3.115   3.115   3.115   3.115   3.115   3.115   3.115   3.115   3.115   3.115   3.115   3.115   3.115   3.115   3.115   3.115   3.115   3.115   3.115   3.115   3.115   3.115   3.115
   223.86    3.115   3.115   3.115   3.115   3.115   3.115   3.115   3.115   3.115   3.115   3.115   3.115   3.115   3.115   3.115   3.115   3.115   3.115   3.115   3.115   3.115   3.115   3.115   3.115   3.115   3.115   3.115   3.115   3.115   3.115   3.115   3.115   3.115   3.115   3.115   3.115
   215.29    3.115   3.115   3.115   3.115   3.115   3.115   3.115   3.115   3.115   3.115   3.115   3.115   3.115   3.115   3.115   3.115   3.115   3.115   3.115   3.115   3.115   3.115   3.115   3.115   3.115   3.115   3.115   3.115   3.115   3.115   3.115   3.115   3.115   3.115   3.115   3.115
   206.71    3.115   3.115   3.115   3.115   3.115   3.115   3.115   3.115   3.115   3.115   3.115   3.115   3.115   3.115   3.115   3.115   3.115   3.115   3.115   3.115   3.115   3.115   3.115   3.115   3.115   3.115   3.115   3.115   3.115   3.115   3.115   3.115   3.115   3.115   3.115   3.115
   198.14    3.115   3.115   3.115   3.115   3.115   3.115   3.115   3.115   3.115   3.115   3.115   3.115   3.115   3.115   3.115   3.115   3.115   3.115   3.115   3.115   3.115   3.115   3.115   3.115   3.115   3.115   3.115   3.115   3.115   3.115   3.115   3.115   3.115   3.115   3.115   3.115
   189.57    3.115   3.115   3.115   3.115   3.115   3.115   3.115   3.115   3.115   3.115   3.115   3.115   3.115   3.115   3.115   3.115   3.115   3.115   3.115   3.115   3.115   3.115   3.115   3.115   3.115   3.115   3.115   3.115   3.115   3.115   3.115   3.115   3.115   3.115   3.115   3.115
   181.00    3.115   3.115   3.115   3.115   3.115   3.115   3.115   3.115   3.115   3.115   3.115   3.115   3.115   3.115   3.115   3.115   3.115   3.115   3.115   3.115   3.115   3.115   3.115   3.115   3.115   3.115   3.115   3.115   3.115   3.115   3.115   3.115   3.115   3.115   3.115   3.115
   172.43    3.115   3.115   3.115   3.115   3.115   3.115   3.115   3.115   3.115   3.115   3.115   3.115   3.115   3.115   3.115   3.115   3.115   3.115   3.115   3.115   3.115   3.115   3.115   3.115   3.115   3.115   3.115   3.115   3.115   3.115   3.115   3.115   3.115   3.115   3.115   3.115
   163.86    3.115   3.115   3.115   3.115   3.115   3.115   3.115   3.115   3.115   3.115   3.115   3.115   3.115   3.115   3.115   3.115   3.115   3.115   3.115   3.115   3.115   3.115   3.115   3.115   3.115   3.115   3.115   3.115   3.115   3.115   3.115   3.115   3.115   3.115   3.115   3.115
   155.29    3.115   3.115   3.115   3.115   3.115   3.115   3.115   3.115   3.115   3.115   3.115   3.115   3.115   3.115   3.115   3.115   3.115   3.115   3.115   3.115   3.115   3.115   3.115   3.115   3.115   3.115   3.115   3.115   3.115   3.115   3.115   3.115   3.115   3.115   3.115   3.115
   146.71    3.115   3.115   3.115   3.115   3.115   3.115   3.115   3.115   3.115   3.115   3.115   3.115   3.115   3.115   3.115   3.115   3.115   3.115   3.115   3.115   3.115   3.115   3.115   3.115   3.115   3.115   3.115   3.115   3.115   3.115   3.115   3.115   3.115   3.115   3.115   3.115
   138.14    3.115   3.115   3.115   3.115   3.115   3.115   3.115   3.115   3.115   3.115   3.115   3.115   3.115   3.115   3.115   3.115   3.115   3.115   3.115   3.115   3.115   3.115   3.115   3.115   3.115   3.115   3.115   3.115   3.115   3.115   3.115   3.115   3.115   3.115   3.115   3.115
   129.57    3.115   3.115   3.115   3.115   3.115   3.115   3.115   3.115   3.115   3.115   3.115   3.115   3.115   3.115   3.115   3.115   3.115   3.115   3.115   3.115   3.115   3.115   3.115   3.115   3.115   3.115   3.115   3.115   3.115   3.115   3.115   3.115   3.115   3.115   3.115   3.115
   121.00    3.115   3.115   3.115   3.115   3.115   3.115   3.115   3.115   3.115   3.115   3.115   3.115   3.115   3.115   3.115   3.115   3.115   3.115   3.115   3.115   3.115   3.115   3.115   3.115   3.115   3.115   3.115   3.115   3.115   3.115   3.115   3.115   3.115   3.115   3.115   3.115
   112.43    3.115   3.115   3.115   3.115   3.115   3.115   3.115   3.115   3.115   3.115   3.115   3.115   3.115   3.115   3.115   3.115   3.115   3.115   3.115   3.115   3.115   3.115   3.115   3.115   3.115   3.115   3.115   3.115   3.115   3.115   3.115   3.115   3.115   3.115   3.115   3.115
   103.86    3.115   3.115   3.115   3.115   3.115   3.115   3.115   3.115   3.115   3.115   3.115   3.115   3.115   3.115   3.115   3.115   3.115   3.115   3.115   3.115   3.115   3.115   3.115   3.115   3.115   3.115   3.115   3.115   3.115   3.115   3.115   3.115   3.115   3.115   3.115   3.115
    95.29    3.115   3.115   3.115   3.115   3.115   3.115   3.115   3.115   3.115   3.115   3.115   3.115   3.115   3.115   3.115   3.115   3.115   3.115   3.115   3.115   3.115   3.115   3.115   3.115   3.115   3.115   3.115   3.115   3.115   3.115   3.115   3.115   3.115   3.115   3.115   3.115
    86.71    3.115   3.115   3.115   3.115   3.115   3.115   3.115   3.115   3.115   3.115   3.115   3.115   3.115   3.115   3.115   3.115   3.115   3.115   3.115   3.115   3.115   3.115   3.115   3.115   3.115   3.115   3.115   3.115   3.115   3.115   3.115   3.115   3.115   3.115   3.115   3.115
    78.14    3.115   3.115   3.115   3.115   3.115   3.115   3.115   3.115   3.115   3.115   3.115   3.115   3.115   3.115   3.115   3.115   3.115   3.115   3.115   3.115   3.115   3.115   3.115   3.115   3.115   3.115   3.115   3.115   3.115   3.115   3.115   3.115   3.115   3.115   3.115   3.115
    69.57    3.115   3.115   3.115   3.115   3.115   3.115   3.115   3.115   3.115   3.115   3.115   3.115   3.115   3.115   3.115   3.115   3.115   3.115   3.115   3.115   3.115   3.115   3.115   3.115   3.115   3.115   3.115   3.115   3.115   3.115   3.115   3.115   3.115   3.115   3.115   3.115
    61.00    3.115   3.115   3.115   3.115   3.115   3.115   3.115   3.115   3.115   3.115   3.115   3.115   3.115   3.115   3.115   3.115   3.115   3.115   3.115   3.115   3.115   3.115   3.115   3.115   3.115   3.115   3.115   3.115   3.115   3.115   3.115   3.115   3.115   3.115   3.115   3.115
    52.43    3.115   3.115   3.115   3.115   3.115   3.115   3.115   3.115   3.115   3.115   3.115   3.115   3.115   3.115   3.115   3.115   3.115   3.115   3.115   3.115   3.115   3.115   3.115   3.115   3.115   3.115   3.115   3.115   3.115   3.115   3.115   3.115   3.115   3.115   3.115   3.115
    43.86    3.115   3.115   3.115   3.115   3.115   3.115   3.115   3.115   3.115   3.115   3.115   3.115   3.115   3.115   3.115   3.115   3.115   3.115   3.115   3.115   3.115   3.115   3.115   3.115   3.115   3.115   3.115   3.115   3.115   3.115   3.115   3.115   3.115   3.115   3.115   3.115
    35.29    3.115   3.115   3.115   3.115   3.115   3.115   3.115   3.115   3.115   3.115   3.115   3.115   3.115   3.115   3.115   3.115   3.115   3.115   3.115   3.115   3.115   3.115   3.115   3.115   3.115   3.115   3.115   3.115   3.115   3.115   3.115   3.115   3.115   3.115   3.115   3.115
    26.71    3.115   3.115   3.115   3.115   3.115   3.115   3.115   3.115   3.115   3.115   3.115   3.115   3.115   3.115   3.115   3.115   3.115   3.115   3.115   3.115   3.115   3.115   3.115   3.115   3.115   3.115   3.115   3.115   3.115   3.115   3.115   3.115   3.115   3.115   3.115   3.115
    18.14    3.115   3.115   3.115   3.115   3.115   3.115   3.115   3.115   3.115   3.115   3.115   3.115   3.115   3.115   3.115   3.115   3.115   3.115   3.115   3.115   3.115   3.115   3.115   3.115   3.115   3.115   3.115   3.115   3.115   3.115   3.115   3.115   3.115   3.115   3.115   3.115
     9.57    3.115   3.115   3.115   3.115   3.115   3.115   3.115   3.115   3.115   3.115   3.115   3.115   3.115   3.115   3.115   3.115   3.115   3.115   3.115   3.115   3.115   3.115   3.115   3.115   3.115   3.115   3.115   3.115   3.115   3.115   3.115   3.115   3.115   3.115   3.115   3.115
     1.00    3.115   3.115   3.115   3.115   3.115   3.115   3.115   3.115   3.115   3.115   3.115   3.115   3.115   3.115   3.115   3.115   3.115   3.115   3.115   3.115   3.115   3.115   3.115   3.115   3.115   3.115   3.115   3.115   3.115   3.115   3.115   3.115   3.115   3.115   3.115   3.115

   Height   Standard deviation at grid points for the w component:
   301.00    3.115   3.115   3.115   3.115   3.115   3.115   3.115   3.115   3.115   3.115   3.115   3.115   3.115   3.115   3.115   3.115   3.115   3.115   3.115   3.115   3.115   3.115   3.115   3.115   3.115   3.115   3.115   3.115   3.115   3.115   3.115   3.115   3.115   3.115   3.115   3.115
   292.43    3.115   3.115   3.115   3.115   3.115   3.115   3.115   3.115   3.115   3.115   3.115   3.115   3.115   3.115   3.115   3.115   3.115   3.115   3.115   3.115   3.115   3.115   3.115   3.115   3.115   3.115   3.115   3.115   3.115   3.115   3.115   3.115   3.115   3.115   3.115   3.115
   283.86    3.115   3.115   3.115   3.115   3.115   3.115   3.115   3.115   3.115   3.115   3.115   3.115   3.115   3.115   3.115   3.115   3.115   3.115   3.115   3.115   3.115   3.115   3.115   3.115   3.115   3.115   3.115   3.115   3.115   3.115   3.115   3.115   3.115   3.115   3.115   3.115
   275.29    3.115   3.115   3.115   3.115   3.115   3.115   3.115   3.115   3.115   3.115   3.115   3.115   3.115   3.115   3.115   3.115   3.115   3.115   3.115   3.115   3.115   3.115   3.115   3.115   3.115   3.115   3.115   3.115   3.115   3.115   3.115   3.115   3.115   3.115   3.115   3.115
   266.71    3.115   3.115   3.115   3.115   3.115   3.115   3.115   3.115   3.115   3.115   3.115   3.115   3.115   3.115   3.115   3.115   3.115   3.115   3.115   3.115   3.115   3.115   3.115   3.115   3.115   3.115   3.115   3.115   3.115   3.115   3.115   3.115   3.115   3.115   3.115   3.115
   258.14    3.115   3.115   3.115   3.115   3.115   3.115   3.115   3.115   3.115   3.115   3.115   3.115   3.115   3.115   3.115   3.115   3.115   3.115   3.115   3.115   3.115   3.115   3.115   3.115   3.115   3.115   3.115   3.115   3.115   3.115   3.115   3.115   3.115   3.115   3.115   3.115
   249.57    3.115   3.115   3.115   3.115   3.115   3.115   3.115   3.115   3.115   3.115   3.115   3.115   3.115   3.115   3.115   3.115   3.115   3.115   3.115   3.115   3.115   3.115   3.115   3.115   3.115   3.115   3.115   3.115   3.115   3.115   3.115   3.115   3.115   3.115   3.115   3.115
   241.00    3.115   3.115   3.115   3.115   3.115   3.115   3.115   3.115   3.115   3.115   3.115   3.115   3.115   3.115   3.115   3.115   3.115   3.115   3.115   3.115   3.115   3.115   3.115   3.115   3.115   3.115   3.115   3.115   3.115   3.115   3.115   3.115   3.115   3.115   3.115   3.115
   232.43    3.115   3.115   3.115   3.115   3.115   3.115   3.115   3.115   3.115   3.115   3.115   3.115   3.115   3.115   3.115   3.115   3.115   3.115   3.115   3.115   3.115   3.115   3.115   3.115   3.115   3.115   3.115   3.115   3.115   3.115   3.115   3.115   3.115   3.115   3.115   3.115
   223.86    3.115   3.115   3.115   3.115   3.115   3.115   3.115   3.115   3.115   3.115   3.115   3.115   3.115   3.115   3.115   3.115   3.115   3.115   3.115   3.115   3.115   3.115   3.115   3.115   3.115   3.115   3.115   3.115   3.115   3.115   3.115   3.115   3.115   3.115   3.115   3.115
   215.29    3.115   3.115   3.115   3.115   3.115   3.115   3.115   3.115   3.115   3.115   3.115   3.115   3.115   3.115   3.115   3.115   3.115   3.115   3.115   3.115   3.115   3.115   3.115   3.115   3.115   3.115   3.115   3.115   3.115   3.115   3.115   3.115   3.115   3.115   3.115   3.115
   206.71    3.115   3.115   3.115   3.115   3.115   3.115   3.115   3.115   3.115   3.115   3.115   3.115   3.115   3.115   3.115   3.115   3.115   3.115   3.115   3.115   3.115   3.115   3.115   3.115   3.115   3.115   3.115   3.115   3.115   3.115   3.115   3.115   3.115   3.115   3.115   3.115
   198.14    3.115   3.115   3.115   3.115   3.115   3.115   3.115   3.115   3.115   3.115   3.115   3.115   3.115   3.115   3.115   3.115   3.115   3.115   3.115   3.115   3.115   3.115   3.115   3.115   3.115   3.115   3.115   3.115   3.115   3.115   3.115   3.115   3.115   3.115   3.115   3.115
   189.57    3.115   3.115   3.115   3.115   3.115   3.115   3.115   3.115   3.115   3.115   3.115   3.115   3.115   3.115   3.115   3.115   3.115   3.115   3.115   3.115   3.115   3.115   3.115   3.115   3.115   3.115   3.115   3.115   3.115   3.115   3.115   3.115   3.115   3.115   3.115   3.115
   181.00    3.115   3.115   3.115   3.115   3.115   3.115   3.115   3.115   3.115   3.115   3.115   3.115   3.115   3.115   3.115   3.115   3.115   3.115   3.115   3.115   3.115   3.115   3.115   3.115   3.115   3.115   3.115   3.115   3.115   3.115   3.115   3.115   3.115   3.115   3.115   3.115
   172.43    3.115   3.115   3.115   3.115   3.115   3.115   3.115   3.115   3.115   3.115   3.115   3.115   3.115   3.115   3.115   3.115   3.115   3.115   3.115   3.115   3.115   3.115   3.115   3.115   3.115   3.115   3.115   3.115   3.115   3.115   3.115   3.115   3.115   3.115   3.115   3.115
   163.86    3.115   3.115   3.115   3.115   3.115   3.115   3.115   3.115   3.115   3.115   3.115   3.115   3.115   3.115   3.115   3.115   3.115   3.115   3.115   3.115   3.115   3.115   3.115   3.115   3.115   3.115   3.115   3.115   3.115   3.115   3.115   3.115   3.115   3.115   3.115   3.115
   155.29    3.115   3.115   3.115   3.115   3.115   3.115   3.115   3.115   3.115   3.115   3.115   3.115   3.115   3.115   3.115   3.115   3.115   3.115   3.115   3.115   3.115   3.115   3.115   3.115   3.115   3.115   3.115   3.115   3.115   3.115   3.115   3.115   3.115   3.115   3.115   3.115
   146.71    3.115   3.115   3.115   3.115   3.115   3.115   3.115   3.115   3.115   3.115   3.115   3.115   3.115   3.115   3.115   3.115   3.115   3.115   3.115   3.115   3.115   3.115   3.115   3.115   3.115   3.115   3.115   3.115   3.115   3.115   3.115   3.115   3.115   3.115   3.115   3.115
   138.14    3.115   3.115   3.115   3.115   3.115   3.115   3.115   3.115   3.115   3.115   3.115   3.115   3.115   3.115   3.115   3.115   3.115   3.115   3.115   3.115   3.115   3.115   3.115   3.115   3.115   3.115   3.115   3.115   3.115   3.115   3.115   3.115   3.115   3.115   3.115   3.115
   129.57    3.115   3.115   3.115   3.115   3.115   3.115   3.115   3.115   3.115   3.115   3.115   3.115   3.115   3.115   3.115   3.115   3.115   3.115   3.115   3.115   3.115   3.115   3.115   3.115   3.115   3.115   3.115   3.115   3.115   3.115   3.115   3.115   3.115   3.115   3.115   3.115
   121.00    3.115   3.115   3.115   3.115   3.115   3.115   3.115   3.115   3.115   3.115   3.115   3.115   3.115   3.115   3.115   3.115   3.115   3.115   3.115   3.115   3.115   3.115   3.115   3.115   3.115   3.115   3.115   3.115   3.115   3.115   3.115   3.115   3.115   3.115   3.115   3.115
   112.43    3.115   3.115   3.115   3.115   3.115   3.115   3.115   3.115   3.115   3.115   3.115   3.115   3.115   3.115   3.115   3.115   3.115   3.115   3.115   3.115   3.115   3.115   3.115   3.115   3.115   3.115   3.115   3.115   3.115   3.115   3.115   3.115   3.115   3.115   3.115   3.115
   103.86    3.115   3.115   3.115   3.115   3.115   3.115   3.115   3.115   3.115   3.115   3.115   3.115   3.115   3.115   3.115   3.115   3.115   3.115   3.115   3.115   3.115   3.115   3.115   3.115   3.115   3.115   3.115   3.115   3.115   3.115   3.115   3.115   3.115   3.115   3.115   3.115
    95.29    3.115   3.115   3.115   3.115   3.115   3.115   3.115   3.115   3.115   3.115   3.115   3.115   3.115   3.115   3.115   3.115   3.115   3.115   3.115   3.115   3.115   3.115   3.115   3.115   3.115   3.115   3.115   3.115   3.115   3.115   3.115   3.115   3.115   3.115   3.115   3.115
    86.71    3.115   3.115   3.115   3.115   3.115   3.115   3.115   3.115   3.115   3.115   3.115   3.115   3.115   3.115   3.115   3.115   3.115   3.115   3.115   3.115   3.115   3.115   3.115   3.115   3.115   3.115   3.115   3.115   3.115   3.115   3.115   3.115   3.115   3.115   3.115   3.115
    78.14    3.115   3.115   3.115   3.115   3.115   3.115   3.115   3.115   3.115   3.115   3.115   3.115   3.115   3.115   3.115   3.115   3.115   3.115   3.115   3.115   3.115   3.115   3.115   3.115   3.115   3.115   3.115   3.115   3.115   3.115   3.115   3.115   3.115   3.115   3.115   3.115
    69.57    3.115   3.115   3.115   3.115   3.115   3.115   3.115   3.115   3.115   3.115   3.115   3.115   3.115   3.115   3.115   3.115   3.115   3.115   3.115   3.115   3.115   3.115   3.115   3.115   3.115   3.115   3.115   3.115   3.115   3.115   3.115   3.115   3.115   3.115   3.115   3.115
    61.00    3.115   3.115   3.115   3.115   3.115   3.115   3.115   3.115   3.115   3.115   3.115   3.115   3.115   3.115   3.115   3.115   3.115   3.115   3.115   3.115   3.115   3.115   3.115   3.115   3.115   3.115   3.115   3.115   3.115   3.115   3.115   3.115   3.115   3.115   3.115   3.115
    52.43    3.115   3.115   3.115   3.115   3.115   3.115   3.115   3.115   3.115   3.115   3.115   3.115   3.115   3.115   3.115   3.115   3.115   3.115   3.115   3.115   3.115   3.115   3.115   3.115   3.115   3.115   3.115   3.115   3.115   3.115   3.115   3.115   3.115   3.115   3.115   3.115
    43.86    3.115   3.115   3.115   3.115   3.115   3.115   3.115   3.115   3.115   3.115   3.115   3.115   3.115   3.115   3.115   3.115   3.115   3.115   3.115   3.115   3.115   3.115   3.115   3.115   3.115   3.115   3.115   3.115   3.115   3.115   3.115   3.115   3.115   3.115   3.115   3.115
    35.29    3.115   3.115   3.115   3.115   3.115   3.115   3.115   3.115   3.115   3.115   3.115   3.115   3.115   3.115   3.115   3.115   3.115   3.115   3.115   3.115   3.115   3.115   3.115   3.115   3.115   3.115   3.115   3.115   3.115   3.115   3.115   3.115   3.115   3.115   3.115   3.115
    26.71    3.115   3.115   3.115   3.115   3.115   3.115   3.115   3.115   3.115   3.115   3.115   3.115   3.115   3.115   3.115   3.115   3.115   3.115   3.115   3.115   3.115   3.115   3.115   3.115   3.115   3.115   3.115   3.115   3.115   3.115   3.115   3.115   3.115   3.115   3.115   3.115
    18.14    3.115   3.115   3.115   3.115   3.115   3.115   3.115   3.115   3.115   3.115   3.115   3.115   3.115   3.115   3.115   3.115   3.115   3.115   3.115   3.115   3.115   3.115   3.115   3.115   3.115   3.115   3.115   3.115   3.115   3.115   3.115   3.115   3.115   3.115   3.115   3.115
     9.57    3.115   3.115   3.115   3.115   3.115   3.115   3.115   3.115   3.115   3.115   3.115   3.115   3.115   3.115   3.115   3.115   3.115   3.115   3.115   3.115   3.115   3.115   3.115   3.115   3.115   3.115   3.115   3.115   3.115   3.115   3.115   3.115   3.115   3.115   3.115   3.115
     1.00    3.115   3.115   3.115   3.115   3.115   3.115   3.115   3.115   3.115   3.115   3.115   3.115   3.115   3.115   3.115   3.115   3.115   3.115   3.115   3.115   3.115   3.115   3.115   3.115   3.115   3.115   3.115   3.115   3.115   3.115   3.115   3.115   3.115   3.115   3.115   3.115

   Mean standard deviation across all grid points:
      u component:    3.005 m/s
      v component:    3.115 m/s
      w component:    3.115 m/s


U-component (X) statistics from the interpolated hub point:

   Mean =  18.9488 m/s
   TI   =  15.6024 %


Normalizing Parameters for Binary Data (approximate statistics):

   UBar  =  18.9501 m/s
   TI(u) =  17.1697 %
   TI(v) =  16.4355 %
   TI(w) =  16.4355 %

   Height Offset =   0.0000 m
   Grid Base     =   1.0000 m

Creating a PERIODIC output file.


Processing complete.  114.84 CPU seconds used.
