
This summary file was generated by TurbSim (v2.00.07a-bjj, 14-Jun-2016) on 03-Nov-2023 at 03:24:06.


Runtime Options:

      3701  Random seed #1
    RANLUX  Type of random number generator
         F  Output binary HH turbulence parameters?
         F  Output formatted turbulence parameters?
         F  Output AeroDyn HH files?
         F  Output AeroDyn FF files?
         T  Output BLADED FF files?
         F  Output tower data?
         F  Output formatted FF files?
         F  Output coherent turbulence time step file?
         T  Clockwise rotation when looking downwind?
 0 -  NONE  IEC turbulence models scaled to exact specified standard deviation


Turbine/Model Specifications:

        36  Vertical grid-point matrix dimension
        36  Horizontal grid-point matrix dimension
     0.100  Time step [seconds]
   660.000  Analysis time [seconds]
   660.000  Usable output time [seconds]
   151.000  Hub height [m]
   300.000  Grid height [m]
   300.000  Grid width [m]
     0.000  Vertical flow angle [degrees]
     0.000  Horizontal flow angle [degrees]


Meteorological Boundary Conditions:

    IECVKM  IEC von Karman spectral model
         1  IEC standard: IEC 61400-1 Ed. 3: 2005
         A  IEC turbulence characteristic
       NTM  IEC Normal Turbulence Model
       N/A  IEC Extreme Turbulence Model (ETM) "c" parameter [m/s]
       PL   Wind profile type
   153.000  Reference height [m]
    17.000  Reference wind speed [m/s]
       N/A  Jet height [m]
     0.200  Power law exponent
     0.030  Surface roughness length [m]


Non-IEC Meteorological Boundary Conditions:

       N/A  Site latitude [degrees]
       N/A  Gradient Richardson number
       N/A  Friction or shear velocity [m/s]
       N/A  Mixing layer depth [m]
       N/A  Mean hub u'w' Reynolds stress
       N/A  Mean hub u'v' Reynolds stress
       N/A  Mean hub v'w' Reynolds stress


Spatial Coherence Models:

       IEC  u-component coherence model
      NONE  v-component coherence model
      NONE  w-component coherence model
(   12.000, 0.353E-03)  u-component coherence parameters
                   N/A  v-component coherence parameters
                   N/A  w-component coherence parameters
       N/A  Coherence exponent


You have requested that the following file(s) be generated:

   G:\2023\OpenWECDV1.0.0_x64\BaseLIne\wind\WindL_V_17_seed_3701.wnd (AeroDyn/BLADED full-field wnd file)


Turbulence Simulation Scaling Parameter Summary:

   Turbulence model used                            =  IEC von Karman
   Turbulence characteristic                        =  A
   IEC turbulence type                              =  Normal Turbulence Model
   IEC standard                                     =  IEC 61400-1 Ed. 3: 2005
   Mean wind speed at hub height                    =   16.955 m/s
   Expected value of turbulence intensity at 15 m/s =   16.000%
   Characteristic value of standard deviation       =    2.931 m/s
   Turbulence scale                                 =   42.000 m
   Isotropic integral scale                         =  147.000 m
   Characteristic value of hub turbulence intensity =   17.284%
   Gradient Richardson number                       =    0.000

   Wind profile type                                =  Power law
   Power law exponent                               =    0.200
   Mean shear across rotor disk                     =    0.044 (m/s)/m
   Assumed rotor diameter                           =  300.000 m
   Surface roughness length                         =    0.030 m

   Nyquist frequency of turbulent wind field        =    5.000 Hz

   Number of time steps in the FFT                  =     6600
   Number of time steps output                      =     6600
   Number of points simulated                       =     1297


Mean Flow Angles:

   Vertical   =   0.0 degrees
   Horizontal =   0.0 degrees

Mean Wind Speed Profile:

   Height    Wind Speed   Horizontal Angle  Vertical Angle  U-comp (X)   V-comp (Y)   W-comp (Z)
     (m)        (m/s)         (degrees)       (degrees)       (m/s)        (m/s)        (m/s)   
   ------    ----------   ----------------  --------------  ----------   ----------   ----------
    301.0       19.46            0.00            0.00         19.46         0.00         0.00
    292.4       19.35            0.00            0.00         19.35         0.00         0.00
    283.9       19.24            0.00            0.00         19.24         0.00         0.00
    275.3       19.12            0.00            0.00         19.12         0.00         0.00
    266.7       19.00            0.00            0.00         19.00         0.00         0.00
    258.1       18.87            0.00            0.00         18.87         0.00         0.00
    249.6       18.75            0.00            0.00         18.75         0.00         0.00
    241.0       18.62            0.00            0.00         18.62         0.00         0.00
    232.4       18.48            0.00            0.00         18.48         0.00         0.00
    223.9       18.34            0.00            0.00         18.34         0.00         0.00
    215.3       18.20            0.00            0.00         18.20         0.00         0.00
    206.7       18.05            0.00            0.00         18.05         0.00         0.00
    198.1       17.90            0.00            0.00         17.90         0.00         0.00
    189.6       17.74            0.00            0.00         17.74         0.00         0.00
    181.0       17.58            0.00            0.00         17.58         0.00         0.00
    172.4       17.41            0.00            0.00         17.41         0.00         0.00
    163.9       17.23            0.00            0.00         17.23         0.00         0.00
    155.3       17.05            0.00            0.00         17.05         0.00         0.00
    151.0       16.96            0.00            0.00         16.96         0.00         0.00
    146.7       16.86            0.00            0.00         16.86         0.00         0.00
    138.1       16.66            0.00            0.00         16.66         0.00         0.00
    129.6       16.44            0.00            0.00         16.44         0.00         0.00
    121.0       16.22            0.00            0.00         16.22         0.00         0.00
    112.4       15.98            0.00            0.00         15.98         0.00         0.00
    103.9       15.73            0.00            0.00         15.73         0.00         0.00
     95.3       15.46            0.00            0.00         15.46         0.00         0.00
     86.7       15.18            0.00            0.00         15.18         0.00         0.00
     78.1       14.86            0.00            0.00         14.86         0.00         0.00
     69.6       14.52            0.00            0.00         14.52         0.00         0.00
     61.0       14.14            0.00            0.00         14.14         0.00         0.00
     52.4       13.72            0.00            0.00         13.72         0.00         0.00
     43.9       13.24            0.00            0.00         13.24         0.00         0.00
     35.3       12.68            0.00            0.00         12.68         0.00         0.00
     26.7       11.99            0.00            0.00         11.99         0.00         0.00
     18.1       11.10            0.00            0.00         11.10         0.00         0.00
      9.6        9.77            0.00            0.00          9.77         0.00         0.00
      1.0        6.22            0.00            0.00          6.22         0.00         0.00


Harvested Random Seeds after Generation of the Random Numbers:

    119307688 K 1
            0 K 2


Hub-Height Simulated Turbulence Statistical Summary:

   Type of Wind        Min (m/s)   Mean (m/s)    Max (m/s)  Sigma (m/s)       TI (%)
   ----------------    ---------   ----------    ---------  -----------       ------
   Longitudinal (u)         6.93        16.96        26.77        2.815       16.604
   Lateral (v)             -8.57        -0.00        10.62        2.879       16.982
   Vertical (w)            -9.84         0.00        10.67        2.879       16.982
   U component              6.93        16.96        26.77        2.815       16.604
   V component             -8.57        -0.00        10.62        2.879       16.982
   W component             -9.84         0.00        10.67        2.879       16.982
   Horizontal (U&V)         6.93        17.19        27.43        2.843       16.535
   Total                    7.09        17.44        27.54        2.829       16.224

                       Min Reynolds     Mean Reynolds    Max Reynolds    Correlation
   Product             Stress (m/s)^2   Stress (m/s)^2   Stress (m/s)^2  Coefficient
   ----------------    --------------   --------------   --------------  -----------
   u'w'                    -44.642            -0.010            53.978        -0.001
   u'v'                    -38.139             0.997            58.720         0.123
   v'w'                    -54.893            -0.674            36.748        -0.081


   Friction Velocity (Ustar)  =      0.098 m/s
   Maximum Instantaneous TKE  =     69.039 (m/s)^2
   Maximum Instantaneous CTKE =     32.514 (m/s)^2


Grid Point Variance Summary:

   Y-coord -150.00 -141.43 -132.86 -124.29 -115.71 -107.14  -98.57  -90.00  -81.43  -72.86  -64.29  -55.71  -47.14  -38.57  -30.00  -21.43  -12.86   -4.29    4.29   12.86   21.43   30.00   38.57   47.14   55.71   64.29   72.86   81.43   90.00   98.57  107.14  115.71  124.29  132.86  141.43  150.00

   Height   Standard deviation at grid points for the u component:
   301.00    2.730   2.851   2.885   3.011   2.944   3.096   3.093   3.109   3.125   3.002   2.973   2.880   2.947   2.903   2.901   2.988   2.771   2.908   2.846   2.756   2.671   2.804   2.903   2.796   2.904   2.988   2.897   2.935   3.112   3.050   2.915   2.946   2.862   2.801   2.882   3.040
   292.43    2.836   2.823   2.937   3.064   2.967   2.893   2.893   2.823   2.976   2.889   2.970   2.730   2.718   2.725   2.806   2.850   2.911   2.844   2.770   2.830   2.724   2.748   2.865   2.855   2.986   2.948   2.882   2.998   3.064   3.194   2.942   2.903   2.815   2.779   2.912   2.997
   283.86    2.822   2.865   3.008   2.958   2.788   2.863   2.735   2.693   2.697   2.784   2.864   2.901   2.836   2.768   2.677   2.866   2.819   2.672   2.595   2.652   2.673   2.701   2.894   2.782   2.929   2.976   2.921   3.029   3.099   3.154   3.040   2.932   2.672   2.760   2.842   2.916
   275.29    2.927   2.968   2.989   2.998   2.755   2.621   2.575   2.449   2.568   2.744   2.775   2.907   2.817   2.754   2.648   2.771   2.828   2.669   2.784   2.814   2.833   2.706   2.739   2.665   2.892   2.938   2.939   2.935   3.046   2.947   3.049   2.923   2.807   2.618   2.735   2.853
   266.71    2.952   2.867   2.791   2.876   2.691   2.728   2.535   2.539   2.710   2.702   2.752   2.731   2.720   2.698   2.785   2.834   2.660   2.587   2.844   2.763   2.724   2.644   2.640   2.756   2.932   3.051   2.961   2.882   2.857   2.911   2.968   2.780   2.579   2.642   2.806   2.712
   258.14    3.053   2.809   2.889   2.838   2.783   2.667   2.555   2.647   2.813   2.718   2.823   2.769   2.651   2.737   2.657   2.774   2.859   2.918   2.810   2.774   2.805   2.772   2.886   2.999   2.964   2.855   2.724   2.754   2.914   2.910   2.933   2.872   2.837   2.640   2.734   2.826
   249.57    3.019   2.961   2.835   2.828   2.727   2.706   2.563   2.581   2.805   2.734   2.876   2.674   2.621   2.689   2.626   2.640   2.787   2.750   2.671   2.753   2.811   2.864   3.027   3.030   3.033   2.918   2.940   2.966   3.014   3.188   3.144   2.887   2.899   2.957   2.751   2.817
   241.00    2.867   2.705   2.672   2.736   2.701   2.607   2.629   2.672   2.730   2.617   2.565   2.769   2.576   2.582   2.442   2.525   2.637   2.556   2.666   2.731   2.882   2.987   2.966   3.106   3.163   2.922   2.958   3.152   3.143   3.228   3.087   2.970   2.920   2.837   2.940   2.940
   232.43    2.749   2.690   2.629   2.844   2.754   2.606   2.539   2.542   2.667   2.560   2.485   2.531   2.447   2.597   2.610   2.582   2.536   2.758   2.775   2.772   2.807   2.899   3.094   3.148   3.096   3.106   3.133   3.239   3.125   3.126   3.163   2.816   2.910   2.843   3.020   3.096
   223.86    2.867   2.665   2.776   2.764   2.795   2.563   2.481   2.472   2.591   2.468   2.416   2.421   2.527   2.560   2.608   2.639   2.628   2.738   2.850   2.882   2.952   3.048   3.181   3.161   3.030   3.119   3.178   3.098   3.216   3.206   3.048   3.001   2.969   2.953   3.013   3.201
   215.29    2.843   2.790   2.705   2.526   2.655   2.597   2.605   2.493   2.649   2.670   2.491   2.524   2.496   2.483   2.625   2.548   2.681   2.887   2.923   2.947   3.121   3.058   3.205   3.171   3.135   3.246   3.074   3.107   3.054   3.230   3.154   3.197   3.256   3.026   3.084   3.135
   206.71    2.994   2.875   2.855   2.639   2.485   2.626   2.581   2.675   2.572   2.550   2.476   2.643   2.580   2.569   2.496   2.533   2.598   2.723   2.800   3.014   2.937   3.068   3.279   3.245   3.201   3.155   3.252   3.239   3.229   3.239   3.202   3.261   3.137   3.176   3.023   3.034
   198.14    3.114   2.987   2.924   2.761   2.590   2.506   2.568   2.695   2.718   2.736   2.648   2.733   2.677   2.695   2.743   2.683   2.781   2.761   2.904   3.015   2.880   3.049   3.312   3.255   3.177   3.240   3.292   3.216   3.233   3.114   3.287   3.352   3.150   3.086   3.276   3.141
   189.57    3.216   3.140   2.999   2.762   2.614   2.597   2.665   2.633   2.649   2.688   2.657   2.613   2.602   2.551   2.718   2.776   2.667   2.763   2.839   2.897   3.020   3.186   3.240   3.163   3.159   3.003   3.094   3.135   3.259   3.172   3.155   3.148   3.153   3.158   3.063   3.213
   181.00    3.084   3.058   2.947   2.801   2.748   2.565   2.590   2.570   2.511   2.619   2.661   2.437   2.495   2.536   2.689   2.533   2.691   2.776   2.859   2.934   2.890   3.192   3.254   3.172   3.066   3.048   3.081   3.171   3.105   3.188   3.305   3.237   3.011   3.049   3.020   3.179
   172.43    3.191   3.000   2.853   2.818   2.778   2.571   2.514   2.344   2.363   2.410   2.541   2.458   2.449   2.538   2.503   2.524   2.654   2.777   2.873   2.894   3.076   3.125   3.116   3.063   2.993   3.077   3.143   3.084   3.162   3.092   3.319   3.230   3.241   3.158   3.213   3.263
   163.86    3.034   2.993   2.856   2.821   2.732   2.564   2.554   2.484   2.359   2.377   2.477   2.579   2.508   2.540   2.548   2.620   2.627   2.742   2.628   2.856   3.071   3.007   3.024   2.948   3.160   3.089   3.191   3.037   3.217   3.046   3.083   3.271   3.078   3.115   3.303   3.344
   155.29    3.295   3.229   2.974   2.717   2.677   2.669   2.445   2.543   2.500   2.419   2.533   2.484   2.459   2.553   2.724   2.658   2.620   2.816   2.648   2.742   2.835   2.878   2.881   2.847   2.850   3.090   3.197   3.239   3.171   3.082   3.098   3.211   2.978   3.185   3.224   3.259
   146.71    3.168   3.246   2.974   2.789   2.654   2.769   2.589   2.594   2.626   2.523   2.477   2.521   2.644   2.705   2.557   2.787   2.687   2.690   2.813   2.821   2.840   2.859   2.843   2.826   2.903   2.990   3.039   3.193   3.092   3.034   3.034   3.087   3.094   3.143   3.103   3.002
   138.14    3.125   3.187   2.869   2.915   2.823   2.711   2.750   2.867   2.793   2.642   2.606   2.545   2.605   2.630   2.772   2.676   2.748   2.681   2.750   2.751   2.718   2.846   2.609   2.822   2.955   3.013   2.850   3.012   3.106   3.169   3.008   3.062   3.044   3.053   3.037   2.914
   129.57    3.080   3.083   3.070   3.056   2.822   2.818   2.959   2.863   2.673   2.776   2.542   2.577   2.515   2.615   2.628   2.628   2.657   2.738   2.721   2.720   2.585   2.676   2.779   2.934   3.005   2.912   2.843   2.886   3.042   3.157   2.926   2.918   2.999   2.864   3.028   3.135
   121.00    3.073   3.122   3.171   2.922   2.976   2.872   2.989   2.863   2.868   2.609   2.543   2.554   2.610   2.471   2.529   2.588   2.659   2.622   2.667   2.531   2.618   2.741   2.870   3.096   3.045   2.916   2.756   2.902   3.041   3.193   3.071   3.132   3.073   3.024   3.060   3.085
   112.43    3.216   3.145   3.165   3.013   2.904   2.949   2.923   2.854   2.879   2.752   2.731   2.592   2.536   2.570   2.560   2.551   2.528   2.630   2.828   2.784   2.661   2.803   2.854   2.925   2.962   2.950   2.759   2.832   3.012   2.997   3.034   3.011   2.946   2.944   2.828   2.966
   103.86    3.223   3.123   3.051   3.038   2.967   2.899   2.994   2.951   2.747   2.873   2.603   2.351   2.426   2.520   2.547   2.647   2.477   2.538   2.690   2.839   2.829   2.872   2.786   2.766   2.796   2.919   2.928   2.995   2.981   2.867   2.816   2.827   2.829   2.892   2.946   2.916
    95.29    3.116   3.158   3.148   3.089   2.933   2.872   2.942   2.862   2.738   2.784   2.496   2.460   2.375   2.334   2.603   2.624   2.569   2.700   2.780   2.770   2.745   2.652   2.676   2.757   2.780   3.051   2.808   2.693   2.798   2.856   2.841   2.822   2.800   2.875   2.950   2.975
    86.71    3.073   3.142   3.136   3.014   2.885   2.873   2.887   2.861   2.723   2.650   2.503   2.711   2.495   2.468   2.544   2.699   2.668   2.512   2.589   2.517   2.642   2.673   2.852   2.837   2.880   3.083   2.941   2.820   2.774   2.885   2.913   2.917   2.938   2.802   2.896   2.958
    78.14    2.943   2.947   2.991   2.947   2.973   2.993   2.995   3.016   2.642   2.645   2.569   2.642   2.574   2.671   2.711   2.643   2.544   2.406   2.487   2.485   2.462   2.509   2.795   2.857   2.891   2.929   2.940   2.784   2.759   2.685   2.810   2.899   2.907   2.869   2.921   2.862
    69.57    3.043   2.910   2.987   2.968   2.911   2.941   2.982   2.989   2.854   2.670   2.727   2.546   2.594   2.556   2.653   2.562   2.622   2.438   2.394   2.480   2.430   2.621   2.762   2.859   2.854   2.981   2.856   2.662   2.703   2.679   2.832   2.869   2.999   3.019   2.835   2.705
    61.00    2.821   2.911   3.068   2.893   2.892   2.864   2.748   2.798   2.820   2.718   2.679   2.680   2.549   2.530   2.368   2.459   2.559   2.508   2.489   2.593   2.546   2.754   2.792   2.677   2.635   2.657   2.744   2.725   2.660   2.587   2.673   2.859   3.051   2.815   2.801   2.699
    52.43    2.846   2.949   2.894   2.771   2.801   2.661   2.687   2.655   2.740   2.677   2.746   2.761   2.612   2.486   2.456   2.489   2.577   2.448   2.407   2.406   2.611   2.745   2.662   2.651   2.504   2.499   2.724   2.830   2.649   2.653   2.746   2.860   2.858   2.786   2.733   2.708
    43.86    2.908   2.772   2.611   2.543   2.437   2.574   2.578   2.739   2.804   2.782   2.675   2.696   2.662   2.668   2.661   2.628   2.579   2.524   2.422   2.548   2.555   2.526   2.593   2.704   2.652   2.734   2.711   2.847   2.717   2.637   2.811   2.864   2.807   2.843   2.843   2.554
    35.29    2.858   2.858   2.603   2.416   2.427   2.474   2.534   2.632   2.648   2.777   2.736   2.775   2.948   2.986   2.793   2.641   2.698   2.532   2.502   2.447   2.449   2.361   2.537   2.668   2.695   2.865   2.868   2.721   2.660   2.721   2.574   2.672   2.667   2.740   2.718   2.679
    26.71    2.832   2.794   2.616   2.587   2.538   2.386   2.561   2.691   2.712   2.614   2.779   2.928   2.971   2.976   2.902   2.712   2.661   2.675   2.758   2.633   2.515   2.390   2.620   2.647   2.666   2.875   2.775   2.732   2.530   2.512   2.607   2.619   2.605   2.665   2.678   2.654
    18.14    3.004   2.762   2.698   2.464   2.467   2.500   2.601   2.649   2.534   2.559   2.691   2.903   3.058   2.959   2.992   2.769   2.786   2.823   2.887   2.716   2.614   2.594   2.633   2.612   2.699   2.815   2.736   2.730   2.651   2.599   2.520   2.487   2.579   2.565   2.700   2.763
     9.57    2.759   2.576   2.506   2.729   2.518   2.554   2.752   2.782   2.756   2.784   2.775   2.831   2.951   2.919   2.884   3.062   2.869   2.808   2.993   2.988   2.869   2.835   2.755   2.735   2.719   2.780   2.855   2.745   2.715   2.761   2.477   2.520   2.616   2.666   2.794   2.844
     1.00    2.869   2.657   2.701   2.657   2.736   2.642   2.830   2.865   3.014   2.728   2.739   2.788   2.873   2.858   2.981   2.970   2.949   2.795   2.997   2.872   2.748   2.981   2.846   2.850   2.821   2.698   2.760   2.783   2.869   2.627   2.556   2.509   2.736   2.791   2.778   2.740

   Height   Standard deviation at grid points for the v component:
   301.00    2.879   2.879   2.879   2.879   2.879   2.879   2.879   2.879   2.879   2.879   2.879   2.879   2.879   2.879   2.879   2.879   2.879   2.879   2.879   2.879   2.879   2.879   2.879   2.879   2.879   2.879   2.879   2.879   2.879   2.879   2.879   2.879   2.879   2.879   2.879   2.879
   292.43    2.879   2.879   2.879   2.879   2.879   2.879   2.879   2.879   2.879   2.879   2.879   2.879   2.879   2.879   2.879   2.879   2.879   2.879   2.879   2.879   2.879   2.879   2.879   2.879   2.879   2.879   2.879   2.879   2.879   2.879   2.879   2.879   2.879   2.879   2.879   2.879
   283.86    2.879   2.879   2.879   2.879   2.879   2.879   2.879   2.879   2.879   2.879   2.879   2.879   2.879   2.879   2.879   2.879   2.879   2.879   2.879   2.879   2.879   2.879   2.879   2.879   2.879   2.879   2.879   2.879   2.879   2.879   2.879   2.879   2.879   2.879   2.879   2.879
   275.29    2.879   2.879   2.879   2.879   2.879   2.879   2.879   2.879   2.879   2.879   2.879   2.879   2.879   2.879   2.879   2.879   2.879   2.879   2.879   2.879   2.879   2.879   2.879   2.879   2.879   2.879   2.879   2.879   2.879   2.879   2.879   2.879   2.879   2.879   2.879   2.879
   266.71    2.879   2.879   2.879   2.879   2.879   2.879   2.879   2.879   2.879   2.879   2.879   2.879   2.879   2.879   2.879   2.879   2.879   2.879   2.879   2.879   2.879   2.879   2.879   2.879   2.879   2.879   2.879   2.879   2.879   2.879   2.879   2.879   2.879   2.879   2.879   2.879
   258.14    2.879   2.879   2.879   2.879   2.879   2.879   2.879   2.879   2.879   2.879   2.879   2.879   2.879   2.879   2.879   2.879   2.879   2.879   2.879   2.879   2.879   2.879   2.879   2.879   2.879   2.879   2.879   2.879   2.879   2.879   2.879   2.879   2.879   2.879   2.879   2.879
   249.57    2.879   2.879   2.879   2.879   2.879   2.879   2.879   2.879   2.879   2.879   2.879   2.879   2.879   2.879   2.879   2.879   2.879   2.879   2.879   2.879   2.879   2.879   2.879   2.879   2.879   2.879   2.879   2.879   2.879   2.879   2.879   2.879   2.879   2.879   2.879   2.879
   241.00    2.879   2.879   2.879   2.879   2.879   2.879   2.879   2.879   2.879   2.879   2.879   2.879   2.879   2.879   2.879   2.879   2.879   2.879   2.879   2.879   2.879   2.879   2.879   2.879   2.879   2.879   2.879   2.879   2.879   2.879   2.879   2.879   2.879   2.879   2.879   2.879
   232.43    2.879   2.879   2.879   2.879   2.879   2.879   2.879   2.879   2.879   2.879   2.879   2.879   2.879   2.879   2.879   2.879   2.879   2.879   2.879   2.879   2.879   2.879   2.879   2.879   2.879   2.879   2.879   2.879   2.879   2.879   2.879   2.879   2.879   2.879   2.879   2.879
   223.86    2.879   2.879   2.879   2.879   2.879   2.879   2.879   2.879   2.879   2.879   2.879   2.879   2.879   2.879   2.879   2.879   2.879   2.879   2.879   2.879   2.879   2.879   2.879   2.879   2.879   2.879   2.879   2.879   2.879   2.879   2.879   2.879   2.879   2.879   2.879   2.879
   215.29    2.879   2.879   2.879   2.879   2.879   2.879   2.879   2.879   2.879   2.879   2.879   2.879   2.879   2.879   2.879   2.879   2.879   2.879   2.879   2.879   2.879   2.879   2.879   2.879   2.879   2.879   2.879   2.879   2.879   2.879   2.879   2.879   2.879   2.879   2.879   2.879
   206.71    2.879   2.879   2.879   2.879   2.879   2.879   2.879   2.879   2.879   2.879   2.879   2.879   2.879   2.879   2.879   2.879   2.879   2.879   2.879   2.879   2.879   2.879   2.879   2.879   2.879   2.879   2.879   2.879   2.879   2.879   2.879   2.879   2.879   2.879   2.879   2.879
   198.14    2.879   2.879   2.879   2.879   2.879   2.879   2.879   2.879   2.879   2.879   2.879   2.879   2.879   2.879   2.879   2.879   2.879   2.879   2.879   2.879   2.879   2.879   2.879   2.879   2.879   2.879   2.879   2.879   2.879   2.879   2.879   2.879   2.879   2.879   2.879   2.879
   189.57    2.879   2.879   2.879   2.879   2.879   2.879   2.879   2.879   2.879   2.879   2.879   2.879   2.879   2.879   2.879   2.879   2.879   2.879   2.879   2.879   2.879   2.879   2.879   2.879   2.879   2.879   2.879   2.879   2.879   2.879   2.879   2.879   2.879   2.879   2.879   2.879
   181.00    2.879   2.879   2.879   2.879   2.879   2.879   2.879   2.879   2.879   2.879   2.879   2.879   2.879   2.879   2.879   2.879   2.879   2.879   2.879   2.879   2.879   2.879   2.879   2.879   2.879   2.879   2.879   2.879   2.879   2.879   2.879   2.879   2.879   2.879   2.879   2.879
   172.43    2.879   2.879   2.879   2.879   2.879   2.879   2.879   2.879   2.879   2.879   2.879   2.879   2.879   2.879   2.879   2.879   2.879   2.879   2.879   2.879   2.879   2.879   2.879   2.879   2.879   2.879   2.879   2.879   2.879   2.879   2.879   2.879   2.879   2.879   2.879   2.879
   163.86    2.879   2.879   2.879   2.879   2.879   2.879   2.879   2.879   2.879   2.879   2.879   2.879   2.879   2.879   2.879   2.879   2.879   2.879   2.879   2.879   2.879   2.879   2.879   2.879   2.879   2.879   2.879   2.879   2.879   2.879   2.879   2.879   2.879   2.879   2.879   2.879
   155.29    2.879   2.879   2.879   2.879   2.879   2.879   2.879   2.879   2.879   2.879   2.879   2.879   2.879   2.879   2.879   2.879   2.879   2.879   2.879   2.879   2.879   2.879   2.879   2.879   2.879   2.879   2.879   2.879   2.879   2.879   2.879   2.879   2.879   2.879   2.879   2.879
   146.71    2.879   2.879   2.879   2.879   2.879   2.879   2.879   2.879   2.879   2.879   2.879   2.879   2.879   2.879   2.879   2.879   2.879   2.879   2.879   2.879   2.879   2.879   2.879   2.879   2.879   2.879   2.879   2.879   2.879   2.879   2.879   2.879   2.879   2.879   2.879   2.879
   138.14    2.879   2.879   2.879   2.879   2.879   2.879   2.879   2.879   2.879   2.879   2.879   2.879   2.879   2.879   2.879   2.879   2.879   2.879   2.879   2.879   2.879   2.879   2.879   2.879   2.879   2.879   2.879   2.879   2.879   2.879   2.879   2.879   2.879   2.879   2.879   2.879
   129.57    2.879   2.879   2.879   2.879   2.879   2.879   2.879   2.879   2.879   2.879   2.879   2.879   2.879   2.879   2.879   2.879   2.879   2.879   2.879   2.879   2.879   2.879   2.879   2.879   2.879   2.879   2.879   2.879   2.879   2.879   2.879   2.879   2.879   2.879   2.879   2.879
   121.00    2.879   2.879   2.879   2.879   2.879   2.879   2.879   2.879   2.879   2.879   2.879   2.879   2.879   2.879   2.879   2.879   2.879   2.879   2.879   2.879   2.879   2.879   2.879   2.879   2.879   2.879   2.879   2.879   2.879   2.879   2.879   2.879   2.879   2.879   2.879   2.879
   112.43    2.879   2.879   2.879   2.879   2.879   2.879   2.879   2.879   2.879   2.879   2.879   2.879   2.879   2.879   2.879   2.879   2.879   2.879   2.879   2.879   2.879   2.879   2.879   2.879   2.879   2.879   2.879   2.879   2.879   2.879   2.879   2.879   2.879   2.879   2.879   2.879
   103.86    2.879   2.879   2.879   2.879   2.879   2.879   2.879   2.879   2.879   2.879   2.879   2.879   2.879   2.879   2.879   2.879   2.879   2.879   2.879   2.879   2.879   2.879   2.879   2.879   2.879   2.879   2.879   2.879   2.879   2.879   2.879   2.879   2.879   2.879   2.879   2.879
    95.29    2.879   2.879   2.879   2.879   2.879   2.879   2.879   2.879   2.879   2.879   2.879   2.879   2.879   2.879   2.879   2.879   2.879   2.879   2.879   2.879   2.879   2.879   2.879   2.879   2.879   2.879   2.879   2.879   2.879   2.879   2.879   2.879   2.879   2.879   2.879   2.879
    86.71    2.879   2.879   2.879   2.879   2.879   2.879   2.879   2.879   2.879   2.879   2.879   2.879   2.879   2.879   2.879   2.879   2.879   2.879   2.879   2.879   2.879   2.879   2.879   2.879   2.879   2.879   2.879   2.879   2.879   2.879   2.879   2.879   2.879   2.879   2.879   2.879
    78.14    2.879   2.879   2.879   2.879   2.879   2.879   2.879   2.879   2.879   2.879   2.879   2.879   2.879   2.879   2.879   2.879   2.879   2.879   2.879   2.879   2.879   2.879   2.879   2.879   2.879   2.879   2.879   2.879   2.879   2.879   2.879   2.879   2.879   2.879   2.879   2.879
    69.57    2.879   2.879   2.879   2.879   2.879   2.879   2.879   2.879   2.879   2.879   2.879   2.879   2.879   2.879   2.879   2.879   2.879   2.879   2.879   2.879   2.879   2.879   2.879   2.879   2.879   2.879   2.879   2.879   2.879   2.879   2.879   2.879   2.879   2.879   2.879   2.879
    61.00    2.879   2.879   2.879   2.879   2.879   2.879   2.879   2.879   2.879   2.879   2.879   2.879   2.879   2.879   2.879   2.879   2.879   2.879   2.879   2.879   2.879   2.879   2.879   2.879   2.879   2.879   2.879   2.879   2.879   2.879   2.879   2.879   2.879   2.879   2.879   2.879
    52.43    2.879   2.879   2.879   2.879   2.879   2.879   2.879   2.879   2.879   2.879   2.879   2.879   2.879   2.879   2.879   2.879   2.879   2.879   2.879   2.879   2.879   2.879   2.879   2.879   2.879   2.879   2.879   2.879   2.879   2.879   2.879   2.879   2.879   2.879   2.879   2.879
    43.86    2.879   2.879   2.879   2.879   2.879   2.879   2.879   2.879   2.879   2.879   2.879   2.879   2.879   2.879   2.879   2.879   2.879   2.879   2.879   2.879   2.879   2.879   2.879   2.879   2.879   2.879   2.879   2.879   2.879   2.879   2.879   2.879   2.879   2.879   2.879   2.879
    35.29    2.879   2.879   2.879   2.879   2.879   2.879   2.879   2.879   2.879   2.879   2.879   2.879   2.879   2.879   2.879   2.879   2.879   2.879   2.879   2.879   2.879   2.879   2.879   2.879   2.879   2.879   2.879   2.879   2.879   2.879   2.879   2.879   2.879   2.879   2.879   2.879
    26.71    2.879   2.879   2.879   2.879   2.879   2.879   2.879   2.879   2.879   2.879   2.879   2.879   2.879   2.879   2.879   2.879   2.879   2.879   2.879   2.879   2.879   2.879   2.879   2.879   2.879   2.879   2.879   2.879   2.879   2.879   2.879   2.879   2.879   2.879   2.879   2.879
    18.14    2.879   2.879   2.879   2.879   2.879   2.879   2.879   2.879   2.879   2.879   2.879   2.879   2.879   2.879   2.879   2.879   2.879   2.879   2.879   2.879   2.879   2.879   2.879   2.879   2.879   2.879   2.879   2.879   2.879   2.879   2.879   2.879   2.879   2.879   2.879   2.879
     9.57    2.879   2.879   2.879   2.879   2.879   2.879   2.879   2.879   2.879   2.879   2.879   2.879   2.879   2.879   2.879   2.879   2.879   2.879   2.879   2.879   2.879   2.879   2.879   2.879   2.879   2.879   2.879   2.879   2.879   2.879   2.879   2.879   2.879   2.879   2.879   2.879
     1.00    2.879   2.879   2.879   2.879   2.879   2.879   2.879   2.879   2.879   2.879   2.879   2.879   2.879   2.879   2.879   2.879   2.879   2.879   2.879   2.879   2.879   2.879   2.879   2.879   2.879   2.879   2.879   2.879   2.879   2.879   2.879   2.879   2.879   2.879   2.879   2.879

   Height   Standard deviation at grid points for the w component:
   301.00    2.879   2.879   2.879   2.879   2.879   2.879   2.879   2.879   2.879   2.879   2.879   2.879   2.879   2.879   2.879   2.879   2.879   2.879   2.879   2.879   2.879   2.879   2.879   2.879   2.879   2.879   2.879   2.879   2.879   2.879   2.879   2.879   2.879   2.879   2.879   2.879
   292.43    2.879   2.879   2.879   2.879   2.879   2.879   2.879   2.879   2.879   2.879   2.879   2.879   2.879   2.879   2.879   2.879   2.879   2.879   2.879   2.879   2.879   2.879   2.879   2.879   2.879   2.879   2.879   2.879   2.879   2.879   2.879   2.879   2.879   2.879   2.879   2.879
   283.86    2.879   2.879   2.879   2.879   2.879   2.879   2.879   2.879   2.879   2.879   2.879   2.879   2.879   2.879   2.879   2.879   2.879   2.879   2.879   2.879   2.879   2.879   2.879   2.879   2.879   2.879   2.879   2.879   2.879   2.879   2.879   2.879   2.879   2.879   2.879   2.879
   275.29    2.879   2.879   2.879   2.879   2.879   2.879   2.879   2.879   2.879   2.879   2.879   2.879   2.879   2.879   2.879   2.879   2.879   2.879   2.879   2.879   2.879   2.879   2.879   2.879   2.879   2.879   2.879   2.879   2.879   2.879   2.879   2.879   2.879   2.879   2.879   2.879
   266.71    2.879   2.879   2.879   2.879   2.879   2.879   2.879   2.879   2.879   2.879   2.879   2.879   2.879   2.879   2.879   2.879   2.879   2.879   2.879   2.879   2.879   2.879   2.879   2.879   2.879   2.879   2.879   2.879   2.879   2.879   2.879   2.879   2.879   2.879   2.879   2.879
   258.14    2.879   2.879   2.879   2.879   2.879   2.879   2.879   2.879   2.879   2.879   2.879   2.879   2.879   2.879   2.879   2.879   2.879   2.879   2.879   2.879   2.879   2.879   2.879   2.879   2.879   2.879   2.879   2.879   2.879   2.879   2.879   2.879   2.879   2.879   2.879   2.879
   249.57    2.879   2.879   2.879   2.879   2.879   2.879   2.879   2.879   2.879   2.879   2.879   2.879   2.879   2.879   2.879   2.879   2.879   2.879   2.879   2.879   2.879   2.879   2.879   2.879   2.879   2.879   2.879   2.879   2.879   2.879   2.879   2.879   2.879   2.879   2.879   2.879
   241.00    2.879   2.879   2.879   2.879   2.879   2.879   2.879   2.879   2.879   2.879   2.879   2.879   2.879   2.879   2.879   2.879   2.879   2.879   2.879   2.879   2.879   2.879   2.879   2.879   2.879   2.879   2.879   2.879   2.879   2.879   2.879   2.879   2.879   2.879   2.879   2.879
   232.43    2.879   2.879   2.879   2.879   2.879   2.879   2.879   2.879   2.879   2.879   2.879   2.879   2.879   2.879   2.879   2.879   2.879   2.879   2.879   2.879   2.879   2.879   2.879   2.879   2.879   2.879   2.879   2.879   2.879   2.879   2.879   2.879   2.879   2.879   2.879   2.879
   223.86    2.879   2.879   2.879   2.879   2.879   2.879   2.879   2.879   2.879   2.879   2.879   2.879   2.879   2.879   2.879   2.879   2.879   2.879   2.879   2.879   2.879   2.879   2.879   2.879   2.879   2.879   2.879   2.879   2.879   2.879   2.879   2.879   2.879   2.879   2.879   2.879
   215.29    2.879   2.879   2.879   2.879   2.879   2.879   2.879   2.879   2.879   2.879   2.879   2.879   2.879   2.879   2.879   2.879   2.879   2.879   2.879   2.879   2.879   2.879   2.879   2.879   2.879   2.879   2.879   2.879   2.879   2.879   2.879   2.879   2.879   2.879   2.879   2.879
   206.71    2.879   2.879   2.879   2.879   2.879   2.879   2.879   2.879   2.879   2.879   2.879   2.879   2.879   2.879   2.879   2.879   2.879   2.879   2.879   2.879   2.879   2.879   2.879   2.879   2.879   2.879   2.879   2.879   2.879   2.879   2.879   2.879   2.879   2.879   2.879   2.879
   198.14    2.879   2.879   2.879   2.879   2.879   2.879   2.879   2.879   2.879   2.879   2.879   2.879   2.879   2.879   2.879   2.879   2.879   2.879   2.879   2.879   2.879   2.879   2.879   2.879   2.879   2.879   2.879   2.879   2.879   2.879   2.879   2.879   2.879   2.879   2.879   2.879
   189.57    2.879   2.879   2.879   2.879   2.879   2.879   2.879   2.879   2.879   2.879   2.879   2.879   2.879   2.879   2.879   2.879   2.879   2.879   2.879   2.879   2.879   2.879   2.879   2.879   2.879   2.879   2.879   2.879   2.879   2.879   2.879   2.879   2.879   2.879   2.879   2.879
   181.00    2.879   2.879   2.879   2.879   2.879   2.879   2.879   2.879   2.879   2.879   2.879   2.879   2.879   2.879   2.879   2.879   2.879   2.879   2.879   2.879   2.879   2.879   2.879   2.879   2.879   2.879   2.879   2.879   2.879   2.879   2.879   2.879   2.879   2.879   2.879   2.879
   172.43    2.879   2.879   2.879   2.879   2.879   2.879   2.879   2.879   2.879   2.879   2.879   2.879   2.879   2.879   2.879   2.879   2.879   2.879   2.879   2.879   2.879   2.879   2.879   2.879   2.879   2.879   2.879   2.879   2.879   2.879   2.879   2.879   2.879   2.879   2.879   2.879
   163.86    2.879   2.879   2.879   2.879   2.879   2.879   2.879   2.879   2.879   2.879   2.879   2.879   2.879   2.879   2.879   2.879   2.879   2.879   2.879   2.879   2.879   2.879   2.879   2.879   2.879   2.879   2.879   2.879   2.879   2.879   2.879   2.879   2.879   2.879   2.879   2.879
   155.29    2.879   2.879   2.879   2.879   2.879   2.879   2.879   2.879   2.879   2.879   2.879   2.879   2.879   2.879   2.879   2.879   2.879   2.879   2.879   2.879   2.879   2.879   2.879   2.879   2.879   2.879   2.879   2.879   2.879   2.879   2.879   2.879   2.879   2.879   2.879   2.879
   146.71    2.879   2.879   2.879   2.879   2.879   2.879   2.879   2.879   2.879   2.879   2.879   2.879   2.879   2.879   2.879   2.879   2.879   2.879   2.879   2.879   2.879   2.879   2.879   2.879   2.879   2.879   2.879   2.879   2.879   2.879   2.879   2.879   2.879   2.879   2.879   2.879
   138.14    2.879   2.879   2.879   2.879   2.879   2.879   2.879   2.879   2.879   2.879   2.879   2.879   2.879   2.879   2.879   2.879   2.879   2.879   2.879   2.879   2.879   2.879   2.879   2.879   2.879   2.879   2.879   2.879   2.879   2.879   2.879   2.879   2.879   2.879   2.879   2.879
   129.57    2.879   2.879   2.879   2.879   2.879   2.879   2.879   2.879   2.879   2.879   2.879   2.879   2.879   2.879   2.879   2.879   2.879   2.879   2.879   2.879   2.879   2.879   2.879   2.879   2.879   2.879   2.879   2.879   2.879   2.879   2.879   2.879   2.879   2.879   2.879   2.879
   121.00    2.879   2.879   2.879   2.879   2.879   2.879   2.879   2.879   2.879   2.879   2.879   2.879   2.879   2.879   2.879   2.879   2.879   2.879   2.879   2.879   2.879   2.879   2.879   2.879   2.879   2.879   2.879   2.879   2.879   2.879   2.879   2.879   2.879   2.879   2.879   2.879
   112.43    2.879   2.879   2.879   2.879   2.879   2.879   2.879   2.879   2.879   2.879   2.879   2.879   2.879   2.879   2.879   2.879   2.879   2.879   2.879   2.879   2.879   2.879   2.879   2.879   2.879   2.879   2.879   2.879   2.879   2.879   2.879   2.879   2.879   2.879   2.879   2.879
   103.86    2.879   2.879   2.879   2.879   2.879   2.879   2.879   2.879   2.879   2.879   2.879   2.879   2.879   2.879   2.879   2.879   2.879   2.879   2.879   2.879   2.879   2.879   2.879   2.879   2.879   2.879   2.879   2.879   2.879   2.879   2.879   2.879   2.879   2.879   2.879   2.879
    95.29    2.879   2.879   2.879   2.879   2.879   2.879   2.879   2.879   2.879   2.879   2.879   2.879   2.879   2.879   2.879   2.879   2.879   2.879   2.879   2.879   2.879   2.879   2.879   2.879   2.879   2.879   2.879   2.879   2.879   2.879   2.879   2.879   2.879   2.879   2.879   2.879
    86.71    2.879   2.879   2.879   2.879   2.879   2.879   2.879   2.879   2.879   2.879   2.879   2.879   2.879   2.879   2.879   2.879   2.879   2.879   2.879   2.879   2.879   2.879   2.879   2.879   2.879   2.879   2.879   2.879   2.879   2.879   2.879   2.879   2.879   2.879   2.879   2.879
    78.14    2.879   2.879   2.879   2.879   2.879   2.879   2.879   2.879   2.879   2.879   2.879   2.879   2.879   2.879   2.879   2.879   2.879   2.879   2.879   2.879   2.879   2.879   2.879   2.879   2.879   2.879   2.879   2.879   2.879   2.879   2.879   2.879   2.879   2.879   2.879   2.879
    69.57    2.879   2.879   2.879   2.879   2.879   2.879   2.879   2.879   2.879   2.879   2.879   2.879   2.879   2.879   2.879   2.879   2.879   2.879   2.879   2.879   2.879   2.879   2.879   2.879   2.879   2.879   2.879   2.879   2.879   2.879   2.879   2.879   2.879   2.879   2.879   2.879
    61.00    2.879   2.879   2.879   2.879   2.879   2.879   2.879   2.879   2.879   2.879   2.879   2.879   2.879   2.879   2.879   2.879   2.879   2.879   2.879   2.879   2.879   2.879   2.879   2.879   2.879   2.879   2.879   2.879   2.879   2.879   2.879   2.879   2.879   2.879   2.879   2.879
    52.43    2.879   2.879   2.879   2.879   2.879   2.879   2.879   2.879   2.879   2.879   2.879   2.879   2.879   2.879   2.879   2.879   2.879   2.879   2.879   2.879   2.879   2.879   2.879   2.879   2.879   2.879   2.879   2.879   2.879   2.879   2.879   2.879   2.879   2.879   2.879   2.879
    43.86    2.879   2.879   2.879   2.879   2.879   2.879   2.879   2.879   2.879   2.879   2.879   2.879   2.879   2.879   2.879   2.879   2.879   2.879   2.879   2.879   2.879   2.879   2.879   2.879   2.879   2.879   2.879   2.879   2.879   2.879   2.879   2.879   2.879   2.879   2.879   2.879
    35.29    2.879   2.879   2.879   2.879   2.879   2.879   2.879   2.879   2.879   2.879   2.879   2.879   2.879   2.879   2.879   2.879   2.879   2.879   2.879   2.879   2.879   2.879   2.879   2.879   2.879   2.879   2.879   2.879   2.879   2.879   2.879   2.879   2.879   2.879   2.879   2.879
    26.71    2.879   2.879   2.879   2.879   2.879   2.879   2.879   2.879   2.879   2.879   2.879   2.879   2.879   2.879   2.879   2.879   2.879   2.879   2.879   2.879   2.879   2.879   2.879   2.879   2.879   2.879   2.879   2.879   2.879   2.879   2.879   2.879   2.879   2.879   2.879   2.879
    18.14    2.879   2.879   2.879   2.879   2.879   2.879   2.879   2.879   2.879   2.879   2.879   2.879   2.879   2.879   2.879   2.879   2.879   2.879   2.879   2.879   2.879   2.879   2.879   2.879   2.879   2.879   2.879   2.879   2.879   2.879   2.879   2.879   2.879   2.879   2.879   2.879
     9.57    2.879   2.879   2.879   2.879   2.879   2.879   2.879   2.879   2.879   2.879   2.879   2.879   2.879   2.879   2.879   2.879   2.879   2.879   2.879   2.879   2.879   2.879   2.879   2.879   2.879   2.879   2.879   2.879   2.879   2.879   2.879   2.879   2.879   2.879   2.879   2.879
     1.00    2.879   2.879   2.879   2.879   2.879   2.879   2.879   2.879   2.879   2.879   2.879   2.879   2.879   2.879   2.879   2.879   2.879   2.879   2.879   2.879   2.879   2.879   2.879   2.879   2.879   2.879   2.879   2.879   2.879   2.879   2.879   2.879   2.879   2.879   2.879   2.879

   Mean standard deviation across all grid points:
      u component:    2.813 m/s
      v component:    2.879 m/s
      w component:    2.879 m/s


U-component (X) statistics from the interpolated hub point:

   Mean =  16.9542 m/s
   TI   =  14.3124 %


Normalizing Parameters for Binary Data (approximate statistics):

   UBar  =  16.9553 m/s
   TI(u) =  16.6042 %
   TI(v) =  16.9825 %
   TI(w) =  16.9825 %

   Height Offset =   0.0000 m
   Grid Base     =   1.0000 m

Creating a PERIODIC output file.


Processing complete.  115.55 CPU seconds used.
