
This summary file was generated by TurbSim (v2.00.07a-bjj, 14-Jun-2016) on 03-Nov-2023 at 03:24:09.


Runtime Options:

      4401  Random seed #1
    RANLUX  Type of random number generator
         F  Output binary HH turbulence parameters?
         F  Output formatted turbulence parameters?
         F  Output AeroDyn HH files?
         F  Output AeroDyn FF files?
         T  Output BLADED FF files?
         F  Output tower data?
         F  Output formatted FF files?
         F  Output coherent turbulence time step file?
         T  Clockwise rotation when looking downwind?
 0 -  NONE  IEC turbulence models scaled to exact specified standard deviation


Turbine/Model Specifications:

        36  Vertical grid-point matrix dimension
        36  Horizontal grid-point matrix dimension
     0.100  Time step [seconds]
   660.000  Analysis time [seconds]
   660.000  Usable output time [seconds]
   151.000  Hub height [m]
   300.000  Grid height [m]
   300.000  Grid width [m]
     0.000  Vertical flow angle [degrees]
     0.000  Horizontal flow angle [degrees]


Meteorological Boundary Conditions:

    IECVKM  IEC von Karman spectral model
         1  IEC standard: IEC 61400-1 Ed. 3: 2005
         A  IEC turbulence characteristic
       NTM  IEC Normal Turbulence Model
       N/A  IEC Extreme Turbulence Model (ETM) "c" parameter [m/s]
       PL   Wind profile type
   153.000  Reference height [m]
    19.000  Reference wind speed [m/s]
       N/A  Jet height [m]
     0.200  Power law exponent
     0.030  Surface roughness length [m]


Non-IEC Meteorological Boundary Conditions:

       N/A  Site latitude [degrees]
       N/A  Gradient Richardson number
       N/A  Friction or shear velocity [m/s]
       N/A  Mixing layer depth [m]
       N/A  Mean hub u'w' Reynolds stress
       N/A  Mean hub u'v' Reynolds stress
       N/A  Mean hub v'w' Reynolds stress


Spatial Coherence Models:

       IEC  u-component coherence model
      NONE  v-component coherence model
      NONE  w-component coherence model
(   12.000, 0.353E-03)  u-component coherence parameters
                   N/A  v-component coherence parameters
                   N/A  w-component coherence parameters
       N/A  Coherence exponent


You have requested that the following file(s) be generated:

   G:\2023\OpenWECDV1.0.0_x64\BaseLIne\wind\WindL_V_19_seed_4401.wnd (AeroDyn/BLADED full-field wnd file)


Turbulence Simulation Scaling Parameter Summary:

   Turbulence model used                            =  IEC von Karman
   Turbulence characteristic                        =  A
   IEC turbulence type                              =  Normal Turbulence Model
   IEC standard                                     =  IEC 61400-1 Ed. 3: 2005
   Mean wind speed at hub height                    =   18.950 m/s
   Expected value of turbulence intensity at 15 m/s =   16.000%
   Characteristic value of standard deviation       =    3.170 m/s
   Turbulence scale                                 =   42.000 m
   Isotropic integral scale                         =  147.000 m
   Characteristic value of hub turbulence intensity =   16.728%
   Gradient Richardson number                       =    0.000

   Wind profile type                                =  Power law
   Power law exponent                               =    0.200
   Mean shear across rotor disk                     =    0.049 (m/s)/m
   Assumed rotor diameter                           =  300.000 m
   Surface roughness length                         =    0.030 m

   Nyquist frequency of turbulent wind field        =    5.000 Hz

   Number of time steps in the FFT                  =     6600
   Number of time steps output                      =     6600
   Number of points simulated                       =     1297


Mean Flow Angles:

   Vertical   =   0.0 degrees
   Horizontal =   0.0 degrees

Mean Wind Speed Profile:

   Height    Wind Speed   Horizontal Angle  Vertical Angle  U-comp (X)   V-comp (Y)   W-comp (Z)
     (m)        (m/s)         (degrees)       (degrees)       (m/s)        (m/s)        (m/s)   
   ------    ----------   ----------------  --------------  ----------   ----------   ----------
    301.0       21.75            0.00            0.00         21.75         0.00         0.00
    292.4       21.63            0.00            0.00         21.63         0.00         0.00
    283.9       21.50            0.00            0.00         21.50         0.00         0.00
    275.3       21.37            0.00            0.00         21.37         0.00         0.00
    266.7       21.23            0.00            0.00         21.23         0.00         0.00
    258.1       21.10            0.00            0.00         21.10         0.00         0.00
    249.6       20.95            0.00            0.00         20.95         0.00         0.00
    241.0       20.81            0.00            0.00         20.81         0.00         0.00
    232.4       20.66            0.00            0.00         20.66         0.00         0.00
    223.9       20.50            0.00            0.00         20.50         0.00         0.00
    215.3       20.34            0.00            0.00         20.34         0.00         0.00
    206.7       20.18            0.00            0.00         20.18         0.00         0.00
    198.1       20.01            0.00            0.00         20.01         0.00         0.00
    189.6       19.83            0.00            0.00         19.83         0.00         0.00
    181.0       19.65            0.00            0.00         19.65         0.00         0.00
    172.4       19.46            0.00            0.00         19.46         0.00         0.00
    163.9       19.26            0.00            0.00         19.26         0.00         0.00
    155.3       19.06            0.00            0.00         19.06         0.00         0.00
    151.0       18.95            0.00            0.00         18.95         0.00         0.00
    146.7       18.84            0.00            0.00         18.84         0.00         0.00
    138.1       18.62            0.00            0.00         18.62         0.00         0.00
    129.6       18.38            0.00            0.00         18.38         0.00         0.00
    121.0       18.13            0.00            0.00         18.13         0.00         0.00
    112.4       17.86            0.00            0.00         17.86         0.00         0.00
    103.9       17.58            0.00            0.00         17.58         0.00         0.00
     95.3       17.28            0.00            0.00         17.28         0.00         0.00
     86.7       16.96            0.00            0.00         16.96         0.00         0.00
     78.1       16.61            0.00            0.00         16.61         0.00         0.00
     69.6       16.23            0.00            0.00         16.23         0.00         0.00
     61.0       15.81            0.00            0.00         15.81         0.00         0.00
     52.4       15.34            0.00            0.00         15.34         0.00         0.00
     43.9       14.80            0.00            0.00         14.80         0.00         0.00
     35.3       14.17            0.00            0.00         14.17         0.00         0.00
     26.7       13.40            0.00            0.00         13.40         0.00         0.00
     18.1       12.40            0.00            0.00         12.40         0.00         0.00
      9.6       10.91            0.00            0.00         10.91         0.00         0.00
      1.0        6.95            0.00            0.00          6.95         0.00         0.00


Harvested Random Seeds after Generation of the Random Numbers:

    119307688 K 1
            0 K 2


Hub-Height Simulated Turbulence Statistical Summary:

   Type of Wind        Min (m/s)   Mean (m/s)    Max (m/s)  Sigma (m/s)       TI (%)
   ----------------    ---------   ----------    ---------  -----------       ------
   Longitudinal (u)         8.50        18.95        28.47        3.183       16.796
   Lateral (v)             -8.69         0.00        10.74        3.115       16.436
   Vertical (w)           -11.74        -0.00         9.97        3.115       16.436
   U component              8.50        18.95        28.47        3.183       16.796
   V component             -8.69         0.00        10.74        3.115       16.436
   W component            -11.74        -0.00         9.97        3.115       16.436
   Horizontal (U&V)         8.89        19.20        28.67        3.191       16.620
   Total                    9.04        19.45        28.68        3.190       16.396

                       Min Reynolds     Mean Reynolds    Max Reynolds    Correlation
   Product             Stress (m/s)^2   Stress (m/s)^2   Stress (m/s)^2  Coefficient
   ----------------    --------------   --------------   --------------  -----------
   u'w'                    -47.710             0.163            61.602         0.016
   u'v'                    -43.067             0.440            51.140         0.044
   v'w'                    -65.121            -1.073            93.185        -0.111


   Friction Velocity (Ustar)  =      0.404 m/s
   Maximum Instantaneous TKE  =    105.906 (m/s)^2
   Maximum Instantaneous CTKE =     52.165 (m/s)^2


Grid Point Variance Summary:

   Y-coord -150.00 -141.43 -132.86 -124.29 -115.71 -107.14  -98.57  -90.00  -81.43  -72.86  -64.29  -55.71  -47.14  -38.57  -30.00  -21.43  -12.86   -4.29    4.29   12.86   21.43   30.00   38.57   47.14   55.71   64.29   72.86   81.43   90.00   98.57  107.14  115.71  124.29  132.86  141.43  150.00

   Height   Standard deviation at grid points for the u component:
   301.00    2.804   2.944   3.064   3.073   3.001   3.021   2.910   2.852   3.002   3.137   3.071   2.886   2.934   2.876   2.788   2.728   2.737   2.897   3.030   3.247   3.203   3.238   3.174   3.187   2.956   2.908   2.829   2.931   2.913   2.913   2.900   2.904   3.139   3.121   3.028   3.051
   292.43    2.989   2.961   3.001   3.017   2.944   2.832   2.899   2.992   2.885   2.985   3.043   2.951   2.793   2.848   2.641   2.743   2.714   2.920   2.890   3.215   3.213   3.378   3.199   3.217   2.997   2.927   2.727   2.832   2.878   2.674   2.882   2.968   3.133   3.159   3.043   3.015
   283.86    2.967   2.950   2.869   3.033   2.868   2.872   3.006   3.083   2.887   2.814   2.819   2.908   2.967   2.866   2.856   2.865   2.744   2.771   2.834   3.085   3.312   3.337   3.086   3.059   2.945   2.936   2.803   2.739   2.823   2.724   2.827   2.864   2.958   3.041   3.221   3.069
   275.29    2.929   3.004   2.897   2.921   2.796   2.787   3.016   2.990   2.899   2.874   2.825   2.872   2.880   2.954   3.061   2.949   2.940   2.820   3.047   3.130   3.195   3.294   3.226   3.124   3.031   2.927   2.932   2.873   2.879   2.804   2.810   2.953   2.995   2.932   2.964   2.968
   266.71    3.164   2.970   3.006   2.884   2.849   2.922   2.836   2.911   2.792   2.736   2.911   2.722   2.749   2.942   2.900   3.028   3.039   2.951   2.992   3.116   3.073   3.223   3.320   3.191   3.075   2.954   3.118   2.977   3.087   2.918   2.740   2.888   2.901   2.887   2.873   2.847
   258.14    3.171   2.963   2.942   2.921   2.837   2.992   2.882   2.904   2.743   2.838   2.815   2.867   2.932   2.850   3.031   3.013   2.978   2.973   3.264   3.083   3.217   3.258   3.304   3.211   3.014   3.165   3.070   3.051   3.035   2.832   2.887   2.919   2.858   2.875   2.800   2.884
   249.57    3.106   2.953   2.968   2.853   3.085   3.015   3.068   2.834   2.883   2.881   2.932   2.976   2.905   3.010   2.875   2.926   2.945   2.942   3.094   3.151   3.079   3.123   3.231   3.167   3.065   3.130   3.238   3.111   3.042   2.959   2.841   2.876   2.927   2.955   2.780   2.852
   241.00    3.086   2.734   2.977   2.897   2.865   2.927   2.840   2.860   2.894   2.913   2.754   2.975   3.118   3.024   2.883   2.938   2.971   2.945   3.038   3.062   3.055   3.227   3.195   3.155   3.078   3.210   3.165   3.030   3.007   2.970   2.865   2.881   2.739   2.786   2.808   2.766
   232.43    2.969   2.794   2.788   2.816   2.736   2.877   2.682   2.736   2.683   2.654   2.822   3.060   2.981   2.780   2.848   2.815   2.961   3.067   3.064   2.988   3.012   3.249   3.207   3.105   2.941   3.061   3.052   2.980   3.074   3.065   2.950   2.893   2.818   2.665   2.753   2.703
   223.86    2.912   2.825   2.617   2.746   2.850   2.829   2.764   2.726   2.690   2.751   2.975   3.022   3.001   2.886   2.929   2.921   3.047   2.963   2.967   2.989   3.066   3.160   3.131   3.020   3.002   3.033   2.996   2.950   2.817   2.789   2.774   2.915   2.805   2.719   2.684   2.773
   215.29    3.007   2.696   2.626   2.710   2.874   2.911   2.958   2.971   2.932   2.991   3.031   3.146   3.127   3.008   3.006   2.901   3.033   3.000   3.046   3.007   3.154   3.167   3.204   3.221   2.976   2.905   2.877   2.659   2.788   2.734   2.812   2.909   2.865   2.649   2.771   2.798
   206.71    3.122   2.818   2.659   2.813   2.805   2.938   2.861   2.953   3.169   3.058   2.958   3.044   2.906   2.940   2.969   3.029   3.022   3.177   3.022   3.043   3.103   3.164   3.204   3.350   3.030   2.949   2.788   2.825   2.853   2.859   2.900   2.883   2.831   2.877   2.794   2.778
   198.14    2.991   2.729   2.736   2.850   2.850   2.892   2.954   3.026   3.017   3.074   2.900   3.090   3.031   2.836   2.868   3.080   3.039   3.113   2.950   3.028   3.156   3.056   3.192   3.065   3.128   3.018   2.929   3.095   2.928   2.928   2.915   2.978   3.030   2.968   2.960   2.767
   189.57    2.904   2.801   2.650   2.864   2.817   2.820   2.821   3.020   3.042   2.977   2.901   2.991   2.872   3.086   2.886   3.025   3.006   3.084   3.060   2.956   3.103   3.142   3.231   3.331   3.197   2.953   3.004   3.017   3.108   3.047   2.959   2.949   3.128   2.891   2.714   2.686
   181.00    2.901   2.916   2.794   2.896   2.842   2.759   2.761   2.785   3.012   2.950   2.935   2.897   2.938   2.990   2.954   3.007   3.135   3.048   3.141   3.186   3.254   3.168   3.285   3.322   3.281   3.212   3.137   3.089   2.862   2.745   2.974   2.897   2.973   2.899   2.710   2.767
   172.43    2.826   2.856   2.859   2.899   2.788   2.754   2.847   2.878   2.814   2.926   3.068   2.990   2.929   2.951   2.917   2.920   3.031   2.943   3.066   3.167   3.367   3.349   3.330   3.249   3.360   3.165   2.988   2.928   2.720   2.847   2.817   2.817   2.843   2.753   2.683   2.681
   163.86    2.821   2.743   2.729   2.803   2.882   2.883   2.838   2.748   2.944   2.861   2.853   2.889   2.750   2.885   2.867   2.814   3.056   2.978   3.208   3.225   3.366   3.258   3.297   3.219   3.068   3.070   3.056   2.968   2.933   2.891   2.674   2.895   2.728   2.700   2.685   2.719
   155.29    2.772   2.836   2.849   2.687   2.827   2.883   2.809   2.837   2.841   2.834   2.834   2.942   2.793   2.848   2.832   2.938   3.052   3.107   3.232   3.263   3.070   3.233   3.080   3.000   2.980   3.167   3.195   2.986   3.003   2.863   2.733   2.897   2.759   2.796   2.780   2.780
   146.71    2.852   2.920   2.822   2.740   2.786   2.854   2.875   2.893   2.739   2.872   2.894   2.947   2.841   2.867   2.926   2.983   3.041   3.168   3.095   3.110   3.054   3.002   3.244   2.973   2.985   3.079   3.073   2.962   3.123   3.159   3.019   3.008   2.939   2.962   2.762   2.882
   138.14    2.865   2.867   2.672   2.791   2.822   2.862   2.872   2.885   2.863   2.973   3.006   2.920   2.910   2.894   2.958   2.963   3.028   2.850   2.929   2.988   3.104   2.902   3.099   3.154   3.094   3.218   3.187   3.046   3.026   3.150   3.173   3.281   3.132   3.046   2.848   2.967
   129.57    2.913   2.871   2.782   2.856   2.937   2.811   2.775   2.917   2.937   2.892   2.962   2.868   2.943   2.996   3.014   3.037   2.978   2.841   2.918   2.916   2.958   3.040   3.042   3.205   3.073   3.163   3.202   3.155   3.214   3.151   3.178   3.302   3.028   2.990   2.976   2.951
   121.00    2.887   2.921   2.738   2.707   2.774   2.803   2.927   2.790   2.814   2.903   2.913   2.828   2.960   2.949   2.920   2.868   3.033   2.993   2.965   2.799   2.891   3.093   3.009   3.117   3.072   3.099   2.976   2.965   2.903   3.027   3.035   3.171   2.948   3.081   3.114   2.984
   112.43    2.898   2.868   2.646   2.483   2.716   2.584   2.812   2.701   2.735   2.665   2.734   2.935   2.981   2.962   3.014   3.024   3.051   2.841   2.932   2.924   3.010   3.159   3.028   2.899   2.937   3.016   2.927   2.856   2.863   3.072   2.881   2.987   2.896   3.022   2.925   3.012
   103.86    2.992   2.793   2.628   2.530   2.553   2.696   2.719   2.853   2.699   2.653   2.791   2.982   2.963   2.951   2.910   3.069   3.049   3.063   2.840   2.851   2.978   3.018   2.954   3.000   2.932   3.058   2.900   2.928   2.923   3.121   3.099   3.083   2.985   3.032   3.172   3.108
    95.29    3.067   2.872   2.778   2.680   2.577   2.790   2.773   2.876   2.924   2.842   2.756   2.939   2.993   2.995   2.902   3.023   3.079   3.012   2.950   3.035   3.128   3.076   3.017   2.967   2.913   3.085   2.793   2.864   2.835   2.934   3.034   3.147   3.261   3.155   3.008   3.233
    86.71    2.981   2.990   2.928   3.022   2.929   2.813   2.951   2.931   2.938   2.820   2.853   2.992   2.920   3.034   3.034   3.011   3.109   3.001   3.134   3.179   3.153   3.064   3.066   2.915   2.957   2.926   2.903   2.718   2.783   2.831   2.965   2.975   3.122   3.284   3.167   3.127
    78.14    2.919   2.932   3.000   2.970   3.045   2.968   3.068   2.958   2.804   2.947   2.989   2.827   2.933   3.077   3.098   3.143   3.100   3.077   3.288   3.289   3.202   3.012   3.037   3.144   3.056   3.047   2.944   2.785   2.919   3.018   2.883   2.872   3.117   3.225   3.123   3.067
    69.57    2.893   3.082   3.134   3.175   2.980   3.073   2.931   2.991   3.057   2.912   2.967   2.889   2.995   3.110   3.122   3.205   3.178   3.342   3.445   3.482   3.300   3.261   3.074   3.170   3.137   3.156   3.138   3.072   2.991   2.986   2.990   2.873   3.046   3.097   3.107   2.866
    61.00    2.988   3.140   3.229   3.195   2.988   3.056   3.037   2.873   2.953   2.994   2.968   2.957   3.142   3.145   3.165   3.188   3.334   3.428   3.685   3.617   3.514   3.532   3.215   3.208   3.215   3.276   3.025   3.103   3.190   2.992   3.070   3.029   3.056   2.947   2.879   2.808
    52.43    3.228   3.366   3.195   3.109   3.084   3.010   3.131   3.146   3.059   3.083   2.922   3.122   3.263   3.154   3.330   3.201   3.471   3.509   3.528   3.403   3.482   3.429   3.292   3.327   3.402   3.299   3.144   3.066   2.903   3.038   2.994   2.922   2.945   2.793   2.798   2.844
    43.86    3.239   3.138   3.250   3.129   3.109   3.176   3.224   3.134   3.170   3.198   3.161   3.035   3.180   3.152   3.253   3.357   3.469   3.553   3.619   3.433   3.462   3.510   3.386   3.563   3.315   3.387   2.955   2.847   2.885   2.942   2.890   2.813   2.829   2.946   2.841   2.832
    35.29    3.181   3.234   3.351   3.156   3.216   3.268   3.453   3.472   3.478   3.283   3.341   3.186   3.157   3.166   3.383   3.482   3.639   3.675   3.659   3.484   3.493   3.513   3.596   3.481   3.333   3.139   3.049   2.837   3.056   2.986   2.911   2.854   2.969   3.076   3.181   2.993
    26.71    3.245   3.373   3.235   3.321   3.264   3.476   3.571   3.529   3.359   3.365   3.314   3.159   3.221   3.306   3.330   3.438   3.630   3.615   3.403   3.479   3.406   3.341   3.359   3.439   3.429   3.126   3.116   3.181   3.269   3.156   2.933   3.021   3.046   3.172   3.162   3.052
    18.14    3.221   3.464   3.494   3.350   3.390   3.356   3.551   3.538   3.294   3.279   3.127   3.073   3.140   3.194   3.407   3.423   3.392   3.593   3.375   3.462   3.421   3.424   3.492   3.587   3.456   3.337   3.204   3.111   3.310   3.272   3.131   3.143   3.066   3.187   3.213   3.085
     9.57    3.331   3.333   3.428   3.230   3.395   3.410   3.566   3.491   3.240   3.279   3.168   3.128   3.104   3.239   3.453   3.464   3.391   3.451   3.449   3.379   3.493   3.568   3.511   3.499   3.417   3.367   3.344   3.183   3.174   3.307   3.177   3.147   3.187   3.143   3.212   3.187
     1.00    3.106   3.359   3.337   3.130   3.345   3.214   3.269   3.449   3.440   3.253   3.272   3.267   3.449   3.396   3.486   3.407   3.366   3.442   3.371   3.544   3.407   3.442   3.493   3.511   3.337   3.283   3.327   3.348   3.275   3.246   2.920   3.190   3.128   3.127   2.994   3.108

   Height   Standard deviation at grid points for the v component:
   301.00    3.115   3.115   3.115   3.115   3.115   3.115   3.115   3.115   3.115   3.115   3.115   3.115   3.115   3.115   3.115   3.115   3.115   3.115   3.115   3.115   3.115   3.115   3.115   3.115   3.115   3.115   3.115   3.115   3.115   3.115   3.115   3.115   3.115   3.115   3.115   3.115
   292.43    3.115   3.115   3.115   3.115   3.115   3.115   3.115   3.115   3.115   3.115   3.115   3.115   3.115   3.115   3.115   3.115   3.115   3.115   3.115   3.115   3.115   3.115   3.115   3.115   3.115   3.115   3.115   3.115   3.115   3.115   3.115   3.115   3.115   3.115   3.115   3.115
   283.86    3.115   3.115   3.115   3.115   3.115   3.115   3.115   3.115   3.115   3.115   3.115   3.115   3.115   3.115   3.115   3.115   3.115   3.115   3.115   3.115   3.115   3.115   3.115   3.115   3.115   3.115   3.115   3.115   3.115   3.115   3.115   3.115   3.115   3.115   3.115   3.115
   275.29    3.115   3.115   3.115   3.115   3.115   3.115   3.115   3.115   3.115   3.115   3.115   3.115   3.115   3.115   3.115   3.115   3.115   3.115   3.115   3.115   3.115   3.115   3.115   3.115   3.115   3.115   3.115   3.115   3.115   3.115   3.115   3.115   3.115   3.115   3.115   3.115
   266.71    3.115   3.115   3.115   3.115   3.115   3.115   3.115   3.115   3.115   3.115   3.115   3.115   3.115   3.115   3.115   3.115   3.115   3.115   3.115   3.115   3.115   3.115   3.115   3.115   3.115   3.115   3.115   3.115   3.115   3.115   3.115   3.115   3.115   3.115   3.115   3.115
   258.14    3.115   3.115   3.115   3.115   3.115   3.115   3.115   3.115   3.115   3.115   3.115   3.115   3.115   3.115   3.115   3.115   3.115   3.115   3.115   3.115   3.115   3.115   3.115   3.115   3.115   3.115   3.115   3.115   3.115   3.115   3.115   3.115   3.115   3.115   3.115   3.115
   249.57    3.115   3.115   3.115   3.115   3.115   3.115   3.115   3.115   3.115   3.115   3.115   3.115   3.115   3.115   3.115   3.115   3.115   3.115   3.115   3.115   3.115   3.115   3.115   3.115   3.115   3.115   3.115   3.115   3.115   3.115   3.115   3.115   3.115   3.115   3.115   3.115
   241.00    3.115   3.115   3.115   3.115   3.115   3.115   3.115   3.115   3.115   3.115   3.115   3.115   3.115   3.115   3.115   3.115   3.115   3.115   3.115   3.115   3.115   3.115   3.115   3.115   3.115   3.115   3.115   3.115   3.115   3.115   3.115   3.115   3.115   3.115   3.115   3.115
   232.43    3.115   3.115   3.115   3.115   3.115   3.115   3.115   3.115   3.115   3.115   3.115   3.115   3.115   3.115   3.115   3.115   3.115   3.115   3.115   3.115   3.115   3.115   3.115   3.115   3.115   3.115   3.115   3.115   3.115   3.115   3.115   3.115   3.115   3.115   3.115   3.115
   223.86    3.115   3.115   3.115   3.115   3.115   3.115   3.115   3.115   3.115   3.115   3.115   3.115   3.115   3.115   3.115   3.115   3.115   3.115   3.115   3.115   3.115   3.115   3.115   3.115   3.115   3.115   3.115   3.115   3.115   3.115   3.115   3.115   3.115   3.115   3.115   3.115
   215.29    3.115   3.115   3.115   3.115   3.115   3.115   3.115   3.115   3.115   3.115   3.115   3.115   3.115   3.115   3.115   3.115   3.115   3.115   3.115   3.115   3.115   3.115   3.115   3.115   3.115   3.115   3.115   3.115   3.115   3.115   3.115   3.115   3.115   3.115   3.115   3.115
   206.71    3.115   3.115   3.115   3.115   3.115   3.115   3.115   3.115   3.115   3.115   3.115   3.115   3.115   3.115   3.115   3.115   3.115   3.115   3.115   3.115   3.115   3.115   3.115   3.115   3.115   3.115   3.115   3.115   3.115   3.115   3.115   3.115   3.115   3.115   3.115   3.115
   198.14    3.115   3.115   3.115   3.115   3.115   3.115   3.115   3.115   3.115   3.115   3.115   3.115   3.115   3.115   3.115   3.115   3.115   3.115   3.115   3.115   3.115   3.115   3.115   3.115   3.115   3.115   3.115   3.115   3.115   3.115   3.115   3.115   3.115   3.115   3.115   3.115
   189.57    3.115   3.115   3.115   3.115   3.115   3.115   3.115   3.115   3.115   3.115   3.115   3.115   3.115   3.115   3.115   3.115   3.115   3.115   3.115   3.115   3.115   3.115   3.115   3.115   3.115   3.115   3.115   3.115   3.115   3.115   3.115   3.115   3.115   3.115   3.115   3.115
   181.00    3.115   3.115   3.115   3.115   3.115   3.115   3.115   3.115   3.115   3.115   3.115   3.115   3.115   3.115   3.115   3.115   3.115   3.115   3.115   3.115   3.115   3.115   3.115   3.115   3.115   3.115   3.115   3.115   3.115   3.115   3.115   3.115   3.115   3.115   3.115   3.115
   172.43    3.115   3.115   3.115   3.115   3.115   3.115   3.115   3.115   3.115   3.115   3.115   3.115   3.115   3.115   3.115   3.115   3.115   3.115   3.115   3.115   3.115   3.115   3.115   3.115   3.115   3.115   3.115   3.115   3.115   3.115   3.115   3.115   3.115   3.115   3.115   3.115
   163.86    3.115   3.115   3.115   3.115   3.115   3.115   3.115   3.115   3.115   3.115   3.115   3.115   3.115   3.115   3.115   3.115   3.115   3.115   3.115   3.115   3.115   3.115   3.115   3.115   3.115   3.115   3.115   3.115   3.115   3.115   3.115   3.115   3.115   3.115   3.115   3.115
   155.29    3.115   3.115   3.115   3.115   3.115   3.115   3.115   3.115   3.115   3.115   3.115   3.115   3.115   3.115   3.115   3.115   3.115   3.115   3.115   3.115   3.115   3.115   3.115   3.115   3.115   3.115   3.115   3.115   3.115   3.115   3.115   3.115   3.115   3.115   3.115   3.115
   146.71    3.115   3.115   3.115   3.115   3.115   3.115   3.115   3.115   3.115   3.115   3.115   3.115   3.115   3.115   3.115   3.115   3.115   3.115   3.115   3.115   3.115   3.115   3.115   3.115   3.115   3.115   3.115   3.115   3.115   3.115   3.115   3.115   3.115   3.115   3.115   3.115
   138.14    3.115   3.115   3.115   3.115   3.115   3.115   3.115   3.115   3.115   3.115   3.115   3.115   3.115   3.115   3.115   3.115   3.115   3.115   3.115   3.115   3.115   3.115   3.115   3.115   3.115   3.115   3.115   3.115   3.115   3.115   3.115   3.115   3.115   3.115   3.115   3.115
   129.57    3.115   3.115   3.115   3.115   3.115   3.115   3.115   3.115   3.115   3.115   3.115   3.115   3.115   3.115   3.115   3.115   3.115   3.115   3.115   3.115   3.115   3.115   3.115   3.115   3.115   3.115   3.115   3.115   3.115   3.115   3.115   3.115   3.115   3.115   3.115   3.115
   121.00    3.115   3.115   3.115   3.115   3.115   3.115   3.115   3.115   3.115   3.115   3.115   3.115   3.115   3.115   3.115   3.115   3.115   3.115   3.115   3.115   3.115   3.115   3.115   3.115   3.115   3.115   3.115   3.115   3.115   3.115   3.115   3.115   3.115   3.115   3.115   3.115
   112.43    3.115   3.115   3.115   3.115   3.115   3.115   3.115   3.115   3.115   3.115   3.115   3.115   3.115   3.115   3.115   3.115   3.115   3.115   3.115   3.115   3.115   3.115   3.115   3.115   3.115   3.115   3.115   3.115   3.115   3.115   3.115   3.115   3.115   3.115   3.115   3.115
   103.86    3.115   3.115   3.115   3.115   3.115   3.115   3.115   3.115   3.115   3.115   3.115   3.115   3.115   3.115   3.115   3.115   3.115   3.115   3.115   3.115   3.115   3.115   3.115   3.115   3.115   3.115   3.115   3.115   3.115   3.115   3.115   3.115   3.115   3.115   3.115   3.115
    95.29    3.115   3.115   3.115   3.115   3.115   3.115   3.115   3.115   3.115   3.115   3.115   3.115   3.115   3.115   3.115   3.115   3.115   3.115   3.115   3.115   3.115   3.115   3.115   3.115   3.115   3.115   3.115   3.115   3.115   3.115   3.115   3.115   3.115   3.115   3.115   3.115
    86.71    3.115   3.115   3.115   3.115   3.115   3.115   3.115   3.115   3.115   3.115   3.115   3.115   3.115   3.115   3.115   3.115   3.115   3.115   3.115   3.115   3.115   3.115   3.115   3.115   3.115   3.115   3.115   3.115   3.115   3.115   3.115   3.115   3.115   3.115   3.115   3.115
    78.14    3.115   3.115   3.115   3.115   3.115   3.115   3.115   3.115   3.115   3.115   3.115   3.115   3.115   3.115   3.115   3.115   3.115   3.115   3.115   3.115   3.115   3.115   3.115   3.115   3.115   3.115   3.115   3.115   3.115   3.115   3.115   3.115   3.115   3.115   3.115   3.115
    69.57    3.115   3.115   3.115   3.115   3.115   3.115   3.115   3.115   3.115   3.115   3.115   3.115   3.115   3.115   3.115   3.115   3.115   3.115   3.115   3.115   3.115   3.115   3.115   3.115   3.115   3.115   3.115   3.115   3.115   3.115   3.115   3.115   3.115   3.115   3.115   3.115
    61.00    3.115   3.115   3.115   3.115   3.115   3.115   3.115   3.115   3.115   3.115   3.115   3.115   3.115   3.115   3.115   3.115   3.115   3.115   3.115   3.115   3.115   3.115   3.115   3.115   3.115   3.115   3.115   3.115   3.115   3.115   3.115   3.115   3.115   3.115   3.115   3.115
    52.43    3.115   3.115   3.115   3.115   3.115   3.115   3.115   3.115   3.115   3.115   3.115   3.115   3.115   3.115   3.115   3.115   3.115   3.115   3.115   3.115   3.115   3.115   3.115   3.115   3.115   3.115   3.115   3.115   3.115   3.115   3.115   3.115   3.115   3.115   3.115   3.115
    43.86    3.115   3.115   3.115   3.115   3.115   3.115   3.115   3.115   3.115   3.115   3.115   3.115   3.115   3.115   3.115   3.115   3.115   3.115   3.115   3.115   3.115   3.115   3.115   3.115   3.115   3.115   3.115   3.115   3.115   3.115   3.115   3.115   3.115   3.115   3.115   3.115
    35.29    3.115   3.115   3.115   3.115   3.115   3.115   3.115   3.115   3.115   3.115   3.115   3.115   3.115   3.115   3.115   3.115   3.115   3.115   3.115   3.115   3.115   3.115   3.115   3.115   3.115   3.115   3.115   3.115   3.115   3.115   3.115   3.115   3.115   3.115   3.115   3.115
    26.71    3.115   3.115   3.115   3.115   3.115   3.115   3.115   3.115   3.115   3.115   3.115   3.115   3.115   3.115   3.115   3.115   3.115   3.115   3.115   3.115   3.115   3.115   3.115   3.115   3.115   3.115   3.115   3.115   3.115   3.115   3.115   3.115   3.115   3.115   3.115   3.115
    18.14    3.115   3.115   3.115   3.115   3.115   3.115   3.115   3.115   3.115   3.115   3.115   3.115   3.115   3.115   3.115   3.115   3.115   3.115   3.115   3.115   3.115   3.115   3.115   3.115   3.115   3.115   3.115   3.115   3.115   3.115   3.115   3.115   3.115   3.115   3.115   3.115
     9.57    3.115   3.115   3.115   3.115   3.115   3.115   3.115   3.115   3.115   3.115   3.115   3.115   3.115   3.115   3.115   3.115   3.115   3.115   3.115   3.115   3.115   3.115   3.115   3.115   3.115   3.115   3.115   3.115   3.115   3.115   3.115   3.115   3.115   3.115   3.115   3.115
     1.00    3.115   3.115   3.115   3.115   3.115   3.115   3.115   3.115   3.115   3.115   3.115   3.115   3.115   3.115   3.115   3.115   3.115   3.115   3.115   3.115   3.115   3.115   3.115   3.115   3.115   3.115   3.115   3.115   3.115   3.115   3.115   3.115   3.115   3.115   3.115   3.115

   Height   Standard deviation at grid points for the w component:
   301.00    3.115   3.115   3.115   3.115   3.115   3.115   3.115   3.115   3.115   3.115   3.115   3.115   3.115   3.115   3.115   3.115   3.115   3.115   3.115   3.115   3.115   3.115   3.115   3.115   3.115   3.115   3.115   3.115   3.115   3.115   3.115   3.115   3.115   3.115   3.115   3.115
   292.43    3.115   3.115   3.115   3.115   3.115   3.115   3.115   3.115   3.115   3.115   3.115   3.115   3.115   3.115   3.115   3.115   3.115   3.115   3.115   3.115   3.115   3.115   3.115   3.115   3.115   3.115   3.115   3.115   3.115   3.115   3.115   3.115   3.115   3.115   3.115   3.115
   283.86    3.115   3.115   3.115   3.115   3.115   3.115   3.115   3.115   3.115   3.115   3.115   3.115   3.115   3.115   3.115   3.115   3.115   3.115   3.115   3.115   3.115   3.115   3.115   3.115   3.115   3.115   3.115   3.115   3.115   3.115   3.115   3.115   3.115   3.115   3.115   3.115
   275.29    3.115   3.115   3.115   3.115   3.115   3.115   3.115   3.115   3.115   3.115   3.115   3.115   3.115   3.115   3.115   3.115   3.115   3.115   3.115   3.115   3.115   3.115   3.115   3.115   3.115   3.115   3.115   3.115   3.115   3.115   3.115   3.115   3.115   3.115   3.115   3.115
   266.71    3.115   3.115   3.115   3.115   3.115   3.115   3.115   3.115   3.115   3.115   3.115   3.115   3.115   3.115   3.115   3.115   3.115   3.115   3.115   3.115   3.115   3.115   3.115   3.115   3.115   3.115   3.115   3.115   3.115   3.115   3.115   3.115   3.115   3.115   3.115   3.115
   258.14    3.115   3.115   3.115   3.115   3.115   3.115   3.115   3.115   3.115   3.115   3.115   3.115   3.115   3.115   3.115   3.115   3.115   3.115   3.115   3.115   3.115   3.115   3.115   3.115   3.115   3.115   3.115   3.115   3.115   3.115   3.115   3.115   3.115   3.115   3.115   3.115
   249.57    3.115   3.115   3.115   3.115   3.115   3.115   3.115   3.115   3.115   3.115   3.115   3.115   3.115   3.115   3.115   3.115   3.115   3.115   3.115   3.115   3.115   3.115   3.115   3.115   3.115   3.115   3.115   3.115   3.115   3.115   3.115   3.115   3.115   3.115   3.115   3.115
   241.00    3.115   3.115   3.115   3.115   3.115   3.115   3.115   3.115   3.115   3.115   3.115   3.115   3.115   3.115   3.115   3.115   3.115   3.115   3.115   3.115   3.115   3.115   3.115   3.115   3.115   3.115   3.115   3.115   3.115   3.115   3.115   3.115   3.115   3.115   3.115   3.115
   232.43    3.115   3.115   3.115   3.115   3.115   3.115   3.115   3.115   3.115   3.115   3.115   3.115   3.115   3.115   3.115   3.115   3.115   3.115   3.115   3.115   3.115   3.115   3.115   3.115   3.115   3.115   3.115   3.115   3.115   3.115   3.115   3.115   3.115   3.115   3.115   3.115
   223.86    3.115   3.115   3.115   3.115   3.115   3.115   3.115   3.115   3.115   3.115   3.115   3.115   3.115   3.115   3.115   3.115   3.115   3.115   3.115   3.115   3.115   3.115   3.115   3.115   3.115   3.115   3.115   3.115   3.115   3.115   3.115   3.115   3.115   3.115   3.115   3.115
   215.29    3.115   3.115   3.115   3.115   3.115   3.115   3.115   3.115   3.115   3.115   3.115   3.115   3.115   3.115   3.115   3.115   3.115   3.115   3.115   3.115   3.115   3.115   3.115   3.115   3.115   3.115   3.115   3.115   3.115   3.115   3.115   3.115   3.115   3.115   3.115   3.115
   206.71    3.115   3.115   3.115   3.115   3.115   3.115   3.115   3.115   3.115   3.115   3.115   3.115   3.115   3.115   3.115   3.115   3.115   3.115   3.115   3.115   3.115   3.115   3.115   3.115   3.115   3.115   3.115   3.115   3.115   3.115   3.115   3.115   3.115   3.115   3.115   3.115
   198.14    3.115   3.115   3.115   3.115   3.115   3.115   3.115   3.115   3.115   3.115   3.115   3.115   3.115   3.115   3.115   3.115   3.115   3.115   3.115   3.115   3.115   3.115   3.115   3.115   3.115   3.115   3.115   3.115   3.115   3.115   3.115   3.115   3.115   3.115   3.115   3.115
   189.57    3.115   3.115   3.115   3.115   3.115   3.115   3.115   3.115   3.115   3.115   3.115   3.115   3.115   3.115   3.115   3.115   3.115   3.115   3.115   3.115   3.115   3.115   3.115   3.115   3.115   3.115   3.115   3.115   3.115   3.115   3.115   3.115   3.115   3.115   3.115   3.115
   181.00    3.115   3.115   3.115   3.115   3.115   3.115   3.115   3.115   3.115   3.115   3.115   3.115   3.115   3.115   3.115   3.115   3.115   3.115   3.115   3.115   3.115   3.115   3.115   3.115   3.115   3.115   3.115   3.115   3.115   3.115   3.115   3.115   3.115   3.115   3.115   3.115
   172.43    3.115   3.115   3.115   3.115   3.115   3.115   3.115   3.115   3.115   3.115   3.115   3.115   3.115   3.115   3.115   3.115   3.115   3.115   3.115   3.115   3.115   3.115   3.115   3.115   3.115   3.115   3.115   3.115   3.115   3.115   3.115   3.115   3.115   3.115   3.115   3.115
   163.86    3.115   3.115   3.115   3.115   3.115   3.115   3.115   3.115   3.115   3.115   3.115   3.115   3.115   3.115   3.115   3.115   3.115   3.115   3.115   3.115   3.115   3.115   3.115   3.115   3.115   3.115   3.115   3.115   3.115   3.115   3.115   3.115   3.115   3.115   3.115   3.115
   155.29    3.115   3.115   3.115   3.115   3.115   3.115   3.115   3.115   3.115   3.115   3.115   3.115   3.115   3.115   3.115   3.115   3.115   3.115   3.115   3.115   3.115   3.115   3.115   3.115   3.115   3.115   3.115   3.115   3.115   3.115   3.115   3.115   3.115   3.115   3.115   3.115
   146.71    3.115   3.115   3.115   3.115   3.115   3.115   3.115   3.115   3.115   3.115   3.115   3.115   3.115   3.115   3.115   3.115   3.115   3.115   3.115   3.115   3.115   3.115   3.115   3.115   3.115   3.115   3.115   3.115   3.115   3.115   3.115   3.115   3.115   3.115   3.115   3.115
   138.14    3.115   3.115   3.115   3.115   3.115   3.115   3.115   3.115   3.115   3.115   3.115   3.115   3.115   3.115   3.115   3.115   3.115   3.115   3.115   3.115   3.115   3.115   3.115   3.115   3.115   3.115   3.115   3.115   3.115   3.115   3.115   3.115   3.115   3.115   3.115   3.115
   129.57    3.115   3.115   3.115   3.115   3.115   3.115   3.115   3.115   3.115   3.115   3.115   3.115   3.115   3.115   3.115   3.115   3.115   3.115   3.115   3.115   3.115   3.115   3.115   3.115   3.115   3.115   3.115   3.115   3.115   3.115   3.115   3.115   3.115   3.115   3.115   3.115
   121.00    3.115   3.115   3.115   3.115   3.115   3.115   3.115   3.115   3.115   3.115   3.115   3.115   3.115   3.115   3.115   3.115   3.115   3.115   3.115   3.115   3.115   3.115   3.115   3.115   3.115   3.115   3.115   3.115   3.115   3.115   3.115   3.115   3.115   3.115   3.115   3.115
   112.43    3.115   3.115   3.115   3.115   3.115   3.115   3.115   3.115   3.115   3.115   3.115   3.115   3.115   3.115   3.115   3.115   3.115   3.115   3.115   3.115   3.115   3.115   3.115   3.115   3.115   3.115   3.115   3.115   3.115   3.115   3.115   3.115   3.115   3.115   3.115   3.115
   103.86    3.115   3.115   3.115   3.115   3.115   3.115   3.115   3.115   3.115   3.115   3.115   3.115   3.115   3.115   3.115   3.115   3.115   3.115   3.115   3.115   3.115   3.115   3.115   3.115   3.115   3.115   3.115   3.115   3.115   3.115   3.115   3.115   3.115   3.115   3.115   3.115
    95.29    3.115   3.115   3.115   3.115   3.115   3.115   3.115   3.115   3.115   3.115   3.115   3.115   3.115   3.115   3.115   3.115   3.115   3.115   3.115   3.115   3.115   3.115   3.115   3.115   3.115   3.115   3.115   3.115   3.115   3.115   3.115   3.115   3.115   3.115   3.115   3.115
    86.71    3.115   3.115   3.115   3.115   3.115   3.115   3.115   3.115   3.115   3.115   3.115   3.115   3.115   3.115   3.115   3.115   3.115   3.115   3.115   3.115   3.115   3.115   3.115   3.115   3.115   3.115   3.115   3.115   3.115   3.115   3.115   3.115   3.115   3.115   3.115   3.115
    78.14    3.115   3.115   3.115   3.115   3.115   3.115   3.115   3.115   3.115   3.115   3.115   3.115   3.115   3.115   3.115   3.115   3.115   3.115   3.115   3.115   3.115   3.115   3.115   3.115   3.115   3.115   3.115   3.115   3.115   3.115   3.115   3.115   3.115   3.115   3.115   3.115
    69.57    3.115   3.115   3.115   3.115   3.115   3.115   3.115   3.115   3.115   3.115   3.115   3.115   3.115   3.115   3.115   3.115   3.115   3.115   3.115   3.115   3.115   3.115   3.115   3.115   3.115   3.115   3.115   3.115   3.115   3.115   3.115   3.115   3.115   3.115   3.115   3.115
    61.00    3.115   3.115   3.115   3.115   3.115   3.115   3.115   3.115   3.115   3.115   3.115   3.115   3.115   3.115   3.115   3.115   3.115   3.115   3.115   3.115   3.115   3.115   3.115   3.115   3.115   3.115   3.115   3.115   3.115   3.115   3.115   3.115   3.115   3.115   3.115   3.115
    52.43    3.115   3.115   3.115   3.115   3.115   3.115   3.115   3.115   3.115   3.115   3.115   3.115   3.115   3.115   3.115   3.115   3.115   3.115   3.115   3.115   3.115   3.115   3.115   3.115   3.115   3.115   3.115   3.115   3.115   3.115   3.115   3.115   3.115   3.115   3.115   3.115
    43.86    3.115   3.115   3.115   3.115   3.115   3.115   3.115   3.115   3.115   3.115   3.115   3.115   3.115   3.115   3.115   3.115   3.115   3.115   3.115   3.115   3.115   3.115   3.115   3.115   3.115   3.115   3.115   3.115   3.115   3.115   3.115   3.115   3.115   3.115   3.115   3.115
    35.29    3.115   3.115   3.115   3.115   3.115   3.115   3.115   3.115   3.115   3.115   3.115   3.115   3.115   3.115   3.115   3.115   3.115   3.115   3.115   3.115   3.115   3.115   3.115   3.115   3.115   3.115   3.115   3.115   3.115   3.115   3.115   3.115   3.115   3.115   3.115   3.115
    26.71    3.115   3.115   3.115   3.115   3.115   3.115   3.115   3.115   3.115   3.115   3.115   3.115   3.115   3.115   3.115   3.115   3.115   3.115   3.115   3.115   3.115   3.115   3.115   3.115   3.115   3.115   3.115   3.115   3.115   3.115   3.115   3.115   3.115   3.115   3.115   3.115
    18.14    3.115   3.115   3.115   3.115   3.115   3.115   3.115   3.115   3.115   3.115   3.115   3.115   3.115   3.115   3.115   3.115   3.115   3.115   3.115   3.115   3.115   3.115   3.115   3.115   3.115   3.115   3.115   3.115   3.115   3.115   3.115   3.115   3.115   3.115   3.115   3.115
     9.57    3.115   3.115   3.115   3.115   3.115   3.115   3.115   3.115   3.115   3.115   3.115   3.115   3.115   3.115   3.115   3.115   3.115   3.115   3.115   3.115   3.115   3.115   3.115   3.115   3.115   3.115   3.115   3.115   3.115   3.115   3.115   3.115   3.115   3.115   3.115   3.115
     1.00    3.115   3.115   3.115   3.115   3.115   3.115   3.115   3.115   3.115   3.115   3.115   3.115   3.115   3.115   3.115   3.115   3.115   3.115   3.115   3.115   3.115   3.115   3.115   3.115   3.115   3.115   3.115   3.115   3.115   3.115   3.115   3.115   3.115   3.115   3.115   3.115

   Mean standard deviation across all grid points:
      u component:    3.025 m/s
      v component:    3.115 m/s
      w component:    3.115 m/s


U-component (X) statistics from the interpolated hub point:

   Mean =  18.9488 m/s
   TI   =  14.8835 %


Normalizing Parameters for Binary Data (approximate statistics):

   UBar  =  18.9501 m/s
   TI(u) =  16.7959 %
   TI(v) =  16.4355 %
   TI(w) =  16.4355 %

   Height Offset =   0.0000 m
   Grid Base     =   1.0000 m

Creating a PERIODIC output file.


Processing complete.  114.75 CPU seconds used.
