
This summary file was generated by TurbSim (v2.00.07a-bjj, 14-Jun-2016) on 03-Nov-2023 at 03:24:15.


Runtime Options:

      5101  Random seed #1
    RANLUX  Type of random number generator
         F  Output binary HH turbulence parameters?
         F  Output formatted turbulence parameters?
         F  Output AeroDyn HH files?
         F  Output AeroDyn FF files?
         T  Output BLADED FF files?
         F  Output tower data?
         F  Output formatted FF files?
         F  Output coherent turbulence time step file?
         T  Clockwise rotation when looking downwind?
 0 -  NONE  IEC turbulence models scaled to exact specified standard deviation


Turbine/Model Specifications:

        36  Vertical grid-point matrix dimension
        36  Horizontal grid-point matrix dimension
     0.100  Time step [seconds]
   660.000  Analysis time [seconds]
   660.000  Usable output time [seconds]
   151.000  Hub height [m]
   300.000  Grid height [m]
   300.000  Grid width [m]
     0.000  Vertical flow angle [degrees]
     0.000  Horizontal flow angle [degrees]


Meteorological Boundary Conditions:

    IECVKM  IEC von Karman spectral model
         1  IEC standard: IEC 61400-1 Ed. 3: 2005
         A  IEC turbulence characteristic
       NTM  IEC Normal Turbulence Model
       N/A  IEC Extreme Turbulence Model (ETM) "c" parameter [m/s]
       PL   Wind profile type
   153.000  Reference height [m]
    21.000  Reference wind speed [m/s]
       N/A  Jet height [m]
     0.200  Power law exponent
     0.030  Surface roughness length [m]


Non-IEC Meteorological Boundary Conditions:

       N/A  Site latitude [degrees]
       N/A  Gradient Richardson number
       N/A  Friction or shear velocity [m/s]
       N/A  Mixing layer depth [m]
       N/A  Mean hub u'w' Reynolds stress
       N/A  Mean hub u'v' Reynolds stress
       N/A  Mean hub v'w' Reynolds stress


Spatial Coherence Models:

       IEC  u-component coherence model
      NONE  v-component coherence model
      NONE  w-component coherence model
(   12.000, 0.353E-03)  u-component coherence parameters
                   N/A  v-component coherence parameters
                   N/A  w-component coherence parameters
       N/A  Coherence exponent


You have requested that the following file(s) be generated:

   G:\2023\OpenWECDV1.0.0_x64\BaseLIne\wind\WindL_V_21_seed_5101.wnd (AeroDyn/BLADED full-field wnd file)


Turbulence Simulation Scaling Parameter Summary:

   Turbulence model used                            =  IEC von Karman
   Turbulence characteristic                        =  A
   IEC turbulence type                              =  Normal Turbulence Model
   IEC standard                                     =  IEC 61400-1 Ed. 3: 2005
   Mean wind speed at hub height                    =   20.945 m/s
   Expected value of turbulence intensity at 15 m/s =   16.000%
   Characteristic value of standard deviation       =    3.409 m/s
   Turbulence scale                                 =   42.000 m
   Isotropic integral scale                         =  147.000 m
   Characteristic value of hub turbulence intensity =   16.278%
   Gradient Richardson number                       =    0.000

   Wind profile type                                =  Power law
   Power law exponent                               =    0.200
   Mean shear across rotor disk                     =    0.055 (m/s)/m
   Assumed rotor diameter                           =  300.000 m
   Surface roughness length                         =    0.030 m

   Nyquist frequency of turbulent wind field        =    5.000 Hz

   Number of time steps in the FFT                  =     6600
   Number of time steps output                      =     6600
   Number of points simulated                       =     1297


Mean Flow Angles:

   Vertical   =   0.0 degrees
   Horizontal =   0.0 degrees

Mean Wind Speed Profile:

   Height    Wind Speed   Horizontal Angle  Vertical Angle  U-comp (X)   V-comp (Y)   W-comp (Z)
     (m)        (m/s)         (degrees)       (degrees)       (m/s)        (m/s)        (m/s)   
   ------    ----------   ----------------  --------------  ----------   ----------   ----------
    301.0       24.04            0.00            0.00         24.04         0.00         0.00
    292.4       23.90            0.00            0.00         23.90         0.00         0.00
    283.9       23.76            0.00            0.00         23.76         0.00         0.00
    275.3       23.62            0.00            0.00         23.62         0.00         0.00
    266.7       23.47            0.00            0.00         23.47         0.00         0.00
    258.1       23.32            0.00            0.00         23.32         0.00         0.00
    249.6       23.16            0.00            0.00         23.16         0.00         0.00
    241.0       23.00            0.00            0.00         23.00         0.00         0.00
    232.4       22.83            0.00            0.00         22.83         0.00         0.00
    223.9       22.66            0.00            0.00         22.66         0.00         0.00
    215.3       22.48            0.00            0.00         22.48         0.00         0.00
    206.7       22.30            0.00            0.00         22.30         0.00         0.00
    198.1       22.11            0.00            0.00         22.11         0.00         0.00
    189.6       21.92            0.00            0.00         21.92         0.00         0.00
    181.0       21.72            0.00            0.00         21.72         0.00         0.00
    172.4       21.51            0.00            0.00         21.51         0.00         0.00
    163.9       21.29            0.00            0.00         21.29         0.00         0.00
    155.3       21.06            0.00            0.00         21.06         0.00         0.00
    151.0       20.94            0.00            0.00         20.94         0.00         0.00
    146.7       20.82            0.00            0.00         20.82         0.00         0.00
    138.1       20.58            0.00            0.00         20.58         0.00         0.00
    129.6       20.31            0.00            0.00         20.31         0.00         0.00
    121.0       20.04            0.00            0.00         20.04         0.00         0.00
    112.4       19.74            0.00            0.00         19.74         0.00         0.00
    103.9       19.43            0.00            0.00         19.43         0.00         0.00
     95.3       19.10            0.00            0.00         19.10         0.00         0.00
     86.7       18.75            0.00            0.00         18.75         0.00         0.00
     78.1       18.36            0.00            0.00         18.36         0.00         0.00
     69.6       17.94            0.00            0.00         17.94         0.00         0.00
     61.0       17.47            0.00            0.00         17.47         0.00         0.00
     52.4       16.95            0.00            0.00         16.95         0.00         0.00
     43.9       16.36            0.00            0.00         16.36         0.00         0.00
     35.3       15.66            0.00            0.00         15.66         0.00         0.00
     26.7       14.81            0.00            0.00         14.81         0.00         0.00
     18.1       13.71            0.00            0.00         13.71         0.00         0.00
      9.6       12.06            0.00            0.00         12.06         0.00         0.00
      1.0        7.68            0.00            0.00          7.68         0.00         0.00


Harvested Random Seeds after Generation of the Random Numbers:

    119307688 K 1
            0 K 2


Hub-Height Simulated Turbulence Statistical Summary:

   Type of Wind        Min (m/s)   Mean (m/s)    Max (m/s)  Sigma (m/s)       TI (%)
   ----------------    ---------   ----------    ---------  -----------       ------
   Longitudinal (u)        10.02        20.94        32.21        3.292       15.719
   Lateral (v)            -11.10         0.00        13.19        3.349       15.991
   Vertical (w)           -11.62         0.00        10.47        3.349       15.991
   U component             10.02        20.94        32.21        3.292       15.719
   V component            -11.10         0.00        13.19        3.349       15.991
   W component            -11.62         0.00        10.47        3.349       15.991
   Horizontal (U&V)        10.53        21.21        32.25        3.284       15.483
   Total                   10.53        21.48        32.27        3.233       15.048

                       Min Reynolds     Mean Reynolds    Max Reynolds    Correlation
   Product             Stress (m/s)^2   Stress (m/s)^2   Stress (m/s)^2  Coefficient
   ----------------    --------------   --------------   --------------  -----------
   u'w'                    -79.674            -0.413            58.242        -0.037
   u'v'                    -70.789             1.623            63.257         0.147
   v'w'                    -69.521            -0.869            69.113        -0.077


   Friction Velocity (Ustar)  =      0.643 m/s
   Maximum Instantaneous TKE  =    101.545 (m/s)^2
   Maximum Instantaneous CTKE =     54.063 (m/s)^2


Grid Point Variance Summary:

   Y-coord -150.00 -141.43 -132.86 -124.29 -115.71 -107.14  -98.57  -90.00  -81.43  -72.86  -64.29  -55.71  -47.14  -38.57  -30.00  -21.43  -12.86   -4.29    4.29   12.86   21.43   30.00   38.57   47.14   55.71   64.29   72.86   81.43   90.00   98.57  107.14  115.71  124.29  132.86  141.43  150.00

   Height   Standard deviation at grid points for the u component:
   301.00    3.170   2.931   3.117   3.142   3.355   3.309   3.126   3.123   3.003   2.954   3.015   3.069   3.096   3.044   3.232   3.372   3.472   3.549   3.659   3.657   3.647   3.428   3.356   3.340   3.374   3.356   3.288   3.108   3.238   3.392   3.338   3.213   3.067   3.285   3.468   3.441
   292.43    3.323   3.114   3.153   3.237   3.064   3.087   3.130   3.111   2.968   3.095   3.177   3.189   3.185   3.244   3.250   3.428   3.404   3.586   3.600   3.552   3.438   3.247   3.277   3.261   3.277   3.248   3.128   3.059   3.093   3.286   3.182   3.270   3.256   3.084   3.299   3.319
   283.86    3.395   3.221   3.172   3.223   2.937   2.848   3.076   3.033   3.012   3.165   3.329   3.259   3.372   3.320   3.347   3.468   3.449   3.531   3.580   3.473   3.316   3.329   3.213   3.086   3.339   3.229   3.217   2.975   3.034   3.163   3.119   3.338   3.226   3.117   3.311   3.195
   275.29    3.465   3.519   3.360   3.311   2.986   3.148   2.925   3.085   3.144   3.233   3.311   3.512   3.484   3.378   3.363   3.362   3.408   3.661   3.592   3.448   3.513   3.551   3.253   3.250   3.300   3.283   3.152   2.946   3.102   3.162   3.145   3.301   3.205   3.038   3.176   3.216
   266.71    3.538   3.492   3.626   3.334   3.128   3.140   3.115   3.207   3.182   3.336   3.342   3.417   3.442   3.514   3.409   3.543   3.468   3.504   3.405   3.401   3.547   3.587   3.293   3.236   3.101   3.246   3.121   3.104   3.226   3.037   3.086   3.168   3.066   3.034   3.115   3.128
   258.14    3.476   3.544   3.567   3.382   3.379   3.157   3.189   3.299   3.422   3.383   3.406   3.455   3.440   3.418   3.526   3.493   3.467   3.449   3.444   3.378   3.513   3.452   3.094   3.178   3.266   3.209   3.177   3.054   3.115   3.218   3.098   3.189   3.131   3.240   3.114   3.298
   249.57    3.538   3.516   3.475   3.411   3.460   3.374   3.287   3.237   3.337   3.385   3.242   3.418   3.341   3.320   3.396   3.475   3.462   3.469   3.351   3.590   3.514   3.294   3.081   3.188   3.256   3.111   3.113   3.181   3.248   3.349   3.301   3.269   3.279   3.280   3.115   3.200
   241.00    3.458   3.553   3.335   3.379   3.419   3.380   3.293   3.137   3.383   3.162   3.127   3.149   3.324   3.251   3.416   3.479   3.355   3.343   3.370   3.544   3.366   3.212   3.327   3.193   3.147   3.122   3.194   3.314   3.135   3.207   3.129   3.271   3.347   3.409   3.237   3.143
   232.43    3.238   3.485   3.307   3.223   3.174   3.331   3.369   3.265   3.200   3.147   3.138   3.164   3.179   3.373   3.253   3.313   3.374   3.331   3.337   3.459   3.314   3.343   3.163   3.034   3.078   3.008   2.966   3.159   3.183   3.179   3.039   3.109   3.258   3.110   3.170   3.087
   223.86    3.140   3.265   3.250   3.196   3.208   3.242   3.348   3.280   3.213   3.040   3.097   3.085   3.271   3.282   3.285   3.292   3.388   3.517   3.359   3.192   3.323   3.249   3.267   2.942   3.012   2.991   2.889   3.084   3.230   3.101   3.010   3.116   3.087   3.212   3.099   2.959
   215.29    3.112   3.067   3.174   3.173   3.101   3.152   3.198   3.206   3.102   3.098   3.158   3.181   3.231   3.319   3.207   3.218   3.197   3.186   3.139   3.136   3.337   3.120   3.309   3.147   2.907   2.768   2.727   2.930   3.061   3.026   2.984   3.013   3.058   3.150   2.991   3.133
   206.71    2.979   2.935   3.035   3.135   3.074   3.245   3.238   3.260   3.065   3.148   3.076   3.240   3.343   3.412   3.234   3.183   3.183   3.223   3.260   3.137   3.179   2.972   3.078   2.976   2.927   2.632   2.560   2.749   2.978   2.936   3.027   3.090   2.983   3.062   3.154   3.270
   198.14    2.897   2.929   2.875   2.882   3.071   3.140   3.017   3.087   3.123   2.966   3.062   3.186   3.184   3.275   3.055   3.087   3.289   3.217   3.288   3.119   3.060   3.065   2.960   2.965   2.877   2.710   2.660   2.761   2.762   2.976   3.078   3.220   3.180   3.266   3.256   3.371
   189.57    2.997   2.827   2.760   2.780   3.064   3.156   3.178   3.065   3.112   3.056   2.868   2.990   3.106   3.155   3.137   3.007   3.249   3.312   3.134   3.118   2.871   2.947   2.912   2.977   2.740   2.674   2.788   2.940   2.866   2.947   3.025   3.220   3.203   3.224   3.380   3.363
   181.00    2.870   2.871   2.787   2.789   3.090   3.224   3.255   3.118   3.047   3.106   2.998   3.105   3.149   3.222   3.035   3.230   3.383   3.339   3.172   3.113   3.043   2.844   2.830   2.935   2.682   2.619   2.670   2.823   2.797   2.957   2.967   3.102   3.193   3.413   3.499   3.328
   172.43    3.081   2.914   2.894   3.067   3.074   3.211   3.346   3.226   3.102   2.928   3.097   2.852   2.956   3.127   3.171   3.280   3.367   3.326   3.370   3.171   2.971   2.840   2.890   2.822   2.655   2.660   2.754   2.784   3.011   3.056   3.137   3.288   3.219   3.379   3.395   3.344
   163.86    3.224   3.168   3.002   3.026   3.122   3.169   3.394   3.352   3.242   3.132   3.051   3.028   3.219   3.062   3.106   3.235   3.309   3.239   3.292   3.135   3.010   2.906   2.908   2.913   2.599   2.814   2.832   2.832   2.924   3.012   3.034   3.125   3.251   3.282   3.383   3.380
   155.29    3.079   3.191   3.149   3.176   3.237   3.379   3.376   3.417   3.360   3.186   3.117   3.194   3.175   3.314   3.340   3.378   3.312   3.363   3.258   3.164   3.001   2.912   2.930   2.896   2.852   2.825   2.748   2.816   2.914   2.965   2.915   2.885   2.942   3.228   3.218   3.247
   146.71    3.377   3.368   3.261   3.162   3.304   3.344   3.327   3.409   3.461   3.421   3.311   3.214   3.114   3.205   3.216   3.159   3.392   3.437   3.340   3.178   2.922   2.888   2.993   3.001   3.044   3.066   2.887   2.840   2.965   2.885   2.806   2.916   2.953   3.095   3.223   3.195
   138.14    3.459   3.569   3.551   3.348   3.414   3.466   3.358   3.347   3.396   3.315   3.431   3.171   3.040   3.173   3.272   3.353   3.397   3.522   3.345   3.183   2.995   2.973   2.998   3.117   3.055   2.987   2.874   2.867   2.830   2.812   2.823   2.814   3.023   3.235   3.221   3.184
   129.57    3.647   3.666   3.509   3.599   3.690   3.544   3.640   3.445   3.298   3.306   3.275   3.266   2.935   3.316   3.361   3.438   3.443   3.411   3.237   2.970   2.922   3.146   3.220   3.216   3.366   3.052   2.964   2.885   2.914   2.752   2.828   3.004   3.203   3.258   3.250   3.250
   121.00    3.687   3.729   3.619   3.553   3.611   3.655   3.484   3.264   3.359   3.276   3.247   3.258   3.046   3.302   3.347   3.480   3.561   3.413   3.230   3.002   3.067   3.228   3.313   3.467   3.270   3.136   3.064   3.029   2.990   2.908   2.866   3.008   3.143   3.145   3.246   3.488
   112.43    3.754   3.556   3.575   3.590   3.679   3.750   3.546   3.381   3.323   3.280   3.288   3.250   3.072   3.280   3.430   3.587   3.557   3.420   3.356   3.141   3.209   3.367   3.433   3.568   3.299   3.291   3.183   3.079   3.028   2.992   2.995   3.124   3.156   3.250   3.338   3.402
   103.86    3.637   3.690   3.636   3.594   3.579   3.714   3.633   3.564   3.403   3.336   3.424   3.264   3.341   3.344   3.424   3.456   3.406   3.236   3.185   3.259   3.354   3.503   3.495   3.390   3.444   3.294   3.502   3.379   3.133   3.248   3.166   3.100   3.256   3.245   3.487   3.438
    95.29    3.672   3.675   3.711   3.682   3.744   3.758   3.751   3.596   3.522   3.385   3.286   3.329   3.256   3.367   3.339   3.260   3.298   3.176   3.291   3.350   3.389   3.434   3.436   3.260   3.466   3.691   3.597   3.506   3.260   3.248   3.162   2.984   3.149   3.147   3.313   3.282
    86.71    3.674   3.765   3.886   3.752   3.798   3.788   3.589   3.559   3.414   3.270   3.240   3.101   3.190   3.369   3.456   3.422   3.388   3.158   3.342   3.285   3.394   3.423   3.376   3.129   3.408   3.576   3.514   3.343   3.226   3.143   3.190   3.153   3.093   3.079   3.189   3.182
    78.14    3.610   3.720   3.871   3.821   3.568   3.661   3.593   3.489   3.522   3.253   3.042   3.079   3.148   3.208   3.352   3.303   3.086   3.093   3.083   3.167   3.196   3.258   3.390   3.282   3.343   3.510   3.367   3.092   3.020   2.986   2.995   3.162   3.182   3.163   3.089   3.143
    69.57    3.536   3.566   3.748   3.735   3.555   3.524   3.365   3.358   3.395   3.220   3.184   3.192   3.111   3.241   3.293   3.334   3.123   3.069   3.059   3.042   3.120   3.301   3.295   3.239   3.291   3.376   3.395   3.202   3.110   3.034   3.237   3.139   2.991   3.042   3.128   3.184
    61.00    3.467   3.505   3.503   3.554   3.640   3.307   3.344   3.292   3.276   3.321   3.444   3.244   3.151   3.305   3.298   3.267   3.349   3.050   3.020   3.065   3.069   3.133   3.148   3.338   3.062   3.146   3.168   3.122   3.076   2.996   3.111   3.165   3.104   3.092   3.065   3.088
    52.43    3.262   3.458   3.461   3.483   3.563   3.354   3.423   3.489   3.473   3.281   3.388   3.411   3.259   3.336   3.213   3.238   3.356   3.290   3.013   3.148   3.071   3.015   2.891   3.056   3.157   3.045   3.038   2.868   2.986   3.063   2.885   3.054   3.013   3.089   2.954   2.912
    43.86    3.473   3.451   3.449   3.385   3.493   3.706   3.752   3.667   3.506   3.443   3.436   3.506   3.493   3.428   3.458   3.348   3.275   3.103   3.071   3.044   3.035   3.076   3.199   3.365   3.407   3.179   3.185   3.128   3.057   3.031   3.020   3.113   2.998   3.085   2.984   2.989
    35.29    3.503   3.395   3.235   3.425   3.557   3.740   3.552   3.645   3.516   3.369   3.240   3.294   3.328   3.348   3.599   3.364   3.194   3.198   3.144   3.254   3.458   3.603   3.495   3.472   3.414   3.486   3.344   3.269   3.097   2.985   3.149   3.064   3.109   3.019   2.979   2.822
    26.71    3.384   3.424   3.470   3.568   3.651   3.689   3.664   3.423   3.497   3.436   3.375   3.450   3.349   3.622   3.608   3.348   3.354   3.273   3.300   3.363   3.609   3.663   3.563   3.457   3.327   3.382   3.253   3.260   3.181   3.198   3.198   3.058   3.125   3.101   3.011   3.096
    18.14    3.511   3.501   3.398   3.472   3.669   3.538   3.671   3.463   3.406   3.480   3.488   3.491   3.604   3.461   3.426   3.414   3.262   3.192   3.399   3.482   3.452   3.564   3.568   3.456   3.413   3.324   3.320   3.361   3.392   3.448   3.291   3.198   3.139   3.120   3.223   3.064
     9.57    3.393   3.361   3.361   3.576   3.622   3.636   3.601   3.438   3.673   3.693   3.591   3.633   3.636   3.606   3.515   3.435   3.446   3.325   3.408   3.635   3.621   3.413   3.434   3.253   3.302   3.284   3.227   3.417   3.418   3.599   3.376   3.207   3.026   3.150   3.113   3.218
     1.00    3.342   3.327   3.522   3.336   3.609   3.522   3.513   3.426   3.667   3.556   3.565   3.615   3.755   3.585   3.479   3.384   3.336   3.559   3.633   3.586   3.788   3.557   3.344   3.169   3.269   3.376   3.328   3.321   3.409   3.451   3.395   3.358   3.141   3.045   3.098   3.159

   Height   Standard deviation at grid points for the v component:
   301.00    3.349   3.349   3.349   3.349   3.349   3.349   3.349   3.349   3.349   3.349   3.349   3.349   3.349   3.349   3.349   3.349   3.349   3.349   3.349   3.349   3.349   3.349   3.349   3.349   3.349   3.349   3.349   3.349   3.349   3.349   3.349   3.349   3.349   3.349   3.349   3.349
   292.43    3.349   3.349   3.349   3.349   3.349   3.349   3.349   3.349   3.349   3.349   3.349   3.349   3.349   3.349   3.349   3.349   3.349   3.349   3.349   3.349   3.349   3.349   3.349   3.349   3.349   3.349   3.349   3.349   3.349   3.349   3.349   3.349   3.349   3.349   3.349   3.349
   283.86    3.349   3.349   3.349   3.349   3.349   3.349   3.349   3.349   3.349   3.349   3.349   3.349   3.349   3.349   3.349   3.349   3.349   3.349   3.349   3.349   3.349   3.349   3.349   3.349   3.349   3.349   3.349   3.349   3.349   3.349   3.349   3.349   3.349   3.349   3.349   3.349
   275.29    3.349   3.349   3.349   3.349   3.349   3.349   3.349   3.349   3.349   3.349   3.349   3.349   3.349   3.349   3.349   3.349   3.349   3.349   3.349   3.349   3.349   3.349   3.349   3.349   3.349   3.349   3.349   3.349   3.349   3.349   3.349   3.349   3.349   3.349   3.349   3.349
   266.71    3.349   3.349   3.349   3.349   3.349   3.349   3.349   3.349   3.349   3.349   3.349   3.349   3.349   3.349   3.349   3.349   3.349   3.349   3.349   3.349   3.349   3.349   3.349   3.349   3.349   3.349   3.349   3.349   3.349   3.349   3.349   3.349   3.349   3.349   3.349   3.349
   258.14    3.349   3.349   3.349   3.349   3.349   3.349   3.349   3.349   3.349   3.349   3.349   3.349   3.349   3.349   3.349   3.349   3.349   3.349   3.349   3.349   3.349   3.349   3.349   3.349   3.349   3.349   3.349   3.349   3.349   3.349   3.349   3.349   3.349   3.349   3.349   3.349
   249.57    3.349   3.349   3.349   3.349   3.349   3.349   3.349   3.349   3.349   3.349   3.349   3.349   3.349   3.349   3.349   3.349   3.349   3.349   3.349   3.349   3.349   3.349   3.349   3.349   3.349   3.349   3.349   3.349   3.349   3.349   3.349   3.349   3.349   3.349   3.349   3.349
   241.00    3.349   3.349   3.349   3.349   3.349   3.349   3.349   3.349   3.349   3.349   3.349   3.349   3.349   3.349   3.349   3.349   3.349   3.349   3.349   3.349   3.349   3.349   3.349   3.349   3.349   3.349   3.349   3.349   3.349   3.349   3.349   3.349   3.349   3.349   3.349   3.349
   232.43    3.349   3.349   3.349   3.349   3.349   3.349   3.349   3.349   3.349   3.349   3.349   3.349   3.349   3.349   3.349   3.349   3.349   3.349   3.349   3.349   3.349   3.349   3.349   3.349   3.349   3.349   3.349   3.349   3.349   3.349   3.349   3.349   3.349   3.349   3.349   3.349
   223.86    3.349   3.349   3.349   3.349   3.349   3.349   3.349   3.349   3.349   3.349   3.349   3.349   3.349   3.349   3.349   3.349   3.349   3.349   3.349   3.349   3.349   3.349   3.349   3.349   3.349   3.349   3.349   3.349   3.349   3.349   3.349   3.349   3.349   3.349   3.349   3.349
   215.29    3.349   3.349   3.349   3.349   3.349   3.349   3.349   3.349   3.349   3.349   3.349   3.349   3.349   3.349   3.349   3.349   3.349   3.349   3.349   3.349   3.349   3.349   3.349   3.349   3.349   3.349   3.349   3.349   3.349   3.349   3.349   3.349   3.349   3.349   3.349   3.349
   206.71    3.349   3.349   3.349   3.349   3.349   3.349   3.349   3.349   3.349   3.349   3.349   3.349   3.349   3.349   3.349   3.349   3.349   3.349   3.349   3.349   3.349   3.349   3.349   3.349   3.349   3.349   3.349   3.349   3.349   3.349   3.349   3.349   3.349   3.349   3.349   3.349
   198.14    3.349   3.349   3.349   3.349   3.349   3.349   3.349   3.349   3.349   3.349   3.349   3.349   3.349   3.349   3.349   3.349   3.349   3.349   3.349   3.349   3.349   3.349   3.349   3.349   3.349   3.349   3.349   3.349   3.349   3.349   3.349   3.349   3.349   3.349   3.349   3.349
   189.57    3.349   3.349   3.349   3.349   3.349   3.349   3.349   3.349   3.349   3.349   3.349   3.349   3.349   3.349   3.349   3.349   3.349   3.349   3.349   3.349   3.349   3.349   3.349   3.349   3.349   3.349   3.349   3.349   3.349   3.349   3.349   3.349   3.349   3.349   3.349   3.349
   181.00    3.349   3.349   3.349   3.349   3.349   3.349   3.349   3.349   3.349   3.349   3.349   3.349   3.349   3.349   3.349   3.349   3.349   3.349   3.349   3.349   3.349   3.349   3.349   3.349   3.349   3.349   3.349   3.349   3.349   3.349   3.349   3.349   3.349   3.349   3.349   3.349
   172.43    3.349   3.349   3.349   3.349   3.349   3.349   3.349   3.349   3.349   3.349   3.349   3.349   3.349   3.349   3.349   3.349   3.349   3.349   3.349   3.349   3.349   3.349   3.349   3.349   3.349   3.349   3.349   3.349   3.349   3.349   3.349   3.349   3.349   3.349   3.349   3.349
   163.86    3.349   3.349   3.349   3.349   3.349   3.349   3.349   3.349   3.349   3.349   3.349   3.349   3.349   3.349   3.349   3.349   3.349   3.349   3.349   3.349   3.349   3.349   3.349   3.349   3.349   3.349   3.349   3.349   3.349   3.349   3.349   3.349   3.349   3.349   3.349   3.349
   155.29    3.349   3.349   3.349   3.349   3.349   3.349   3.349   3.349   3.349   3.349   3.349   3.349   3.349   3.349   3.349   3.349   3.349   3.349   3.349   3.349   3.349   3.349   3.349   3.349   3.349   3.349   3.349   3.349   3.349   3.349   3.349   3.349   3.349   3.349   3.349   3.349
   146.71    3.349   3.349   3.349   3.349   3.349   3.349   3.349   3.349   3.349   3.349   3.349   3.349   3.349   3.349   3.349   3.349   3.349   3.349   3.349   3.349   3.349   3.349   3.349   3.349   3.349   3.349   3.349   3.349   3.349   3.349   3.349   3.349   3.349   3.349   3.349   3.349
   138.14    3.349   3.349   3.349   3.349   3.349   3.349   3.349   3.349   3.349   3.349   3.349   3.349   3.349   3.349   3.349   3.349   3.349   3.349   3.349   3.349   3.349   3.349   3.349   3.349   3.349   3.349   3.349   3.349   3.349   3.349   3.349   3.349   3.349   3.349   3.349   3.349
   129.57    3.349   3.349   3.349   3.349   3.349   3.349   3.349   3.349   3.349   3.349   3.349   3.349   3.349   3.349   3.349   3.349   3.349   3.349   3.349   3.349   3.349   3.349   3.349   3.349   3.349   3.349   3.349   3.349   3.349   3.349   3.349   3.349   3.349   3.349   3.349   3.349
   121.00    3.349   3.349   3.349   3.349   3.349   3.349   3.349   3.349   3.349   3.349   3.349   3.349   3.349   3.349   3.349   3.349   3.349   3.349   3.349   3.349   3.349   3.349   3.349   3.349   3.349   3.349   3.349   3.349   3.349   3.349   3.349   3.349   3.349   3.349   3.349   3.349
   112.43    3.349   3.349   3.349   3.349   3.349   3.349   3.349   3.349   3.349   3.349   3.349   3.349   3.349   3.349   3.349   3.349   3.349   3.349   3.349   3.349   3.349   3.349   3.349   3.349   3.349   3.349   3.349   3.349   3.349   3.349   3.349   3.349   3.349   3.349   3.349   3.349
   103.86    3.349   3.349   3.349   3.349   3.349   3.349   3.349   3.349   3.349   3.349   3.349   3.349   3.349   3.349   3.349   3.349   3.349   3.349   3.349   3.349   3.349   3.349   3.349   3.349   3.349   3.349   3.349   3.349   3.349   3.349   3.349   3.349   3.349   3.349   3.349   3.349
    95.29    3.349   3.349   3.349   3.349   3.349   3.349   3.349   3.349   3.349   3.349   3.349   3.349   3.349   3.349   3.349   3.349   3.349   3.349   3.349   3.349   3.349   3.349   3.349   3.349   3.349   3.349   3.349   3.349   3.349   3.349   3.349   3.349   3.349   3.349   3.349   3.349
    86.71    3.349   3.349   3.349   3.349   3.349   3.349   3.349   3.349   3.349   3.349   3.349   3.349   3.349   3.349   3.349   3.349   3.349   3.349   3.349   3.349   3.349   3.349   3.349   3.349   3.349   3.349   3.349   3.349   3.349   3.349   3.349   3.349   3.349   3.349   3.349   3.349
    78.14    3.349   3.349   3.349   3.349   3.349   3.349   3.349   3.349   3.349   3.349   3.349   3.349   3.349   3.349   3.349   3.349   3.349   3.349   3.349   3.349   3.349   3.349   3.349   3.349   3.349   3.349   3.349   3.349   3.349   3.349   3.349   3.349   3.349   3.349   3.349   3.349
    69.57    3.349   3.349   3.349   3.349   3.349   3.349   3.349   3.349   3.349   3.349   3.349   3.349   3.349   3.349   3.349   3.349   3.349   3.349   3.349   3.349   3.349   3.349   3.349   3.349   3.349   3.349   3.349   3.349   3.349   3.349   3.349   3.349   3.349   3.349   3.349   3.349
    61.00    3.349   3.349   3.349   3.349   3.349   3.349   3.349   3.349   3.349   3.349   3.349   3.349   3.349   3.349   3.349   3.349   3.349   3.349   3.349   3.349   3.349   3.349   3.349   3.349   3.349   3.349   3.349   3.349   3.349   3.349   3.349   3.349   3.349   3.349   3.349   3.349
    52.43    3.349   3.349   3.349   3.349   3.349   3.349   3.349   3.349   3.349   3.349   3.349   3.349   3.349   3.349   3.349   3.349   3.349   3.349   3.349   3.349   3.349   3.349   3.349   3.349   3.349   3.349   3.349   3.349   3.349   3.349   3.349   3.349   3.349   3.349   3.349   3.349
    43.86    3.349   3.349   3.349   3.349   3.349   3.349   3.349   3.349   3.349   3.349   3.349   3.349   3.349   3.349   3.349   3.349   3.349   3.349   3.349   3.349   3.349   3.349   3.349   3.349   3.349   3.349   3.349   3.349   3.349   3.349   3.349   3.349   3.349   3.349   3.349   3.349
    35.29    3.349   3.349   3.349   3.349   3.349   3.349   3.349   3.349   3.349   3.349   3.349   3.349   3.349   3.349   3.349   3.349   3.349   3.349   3.349   3.349   3.349   3.349   3.349   3.349   3.349   3.349   3.349   3.349   3.349   3.349   3.349   3.349   3.349   3.349   3.349   3.349
    26.71    3.349   3.349   3.349   3.349   3.349   3.349   3.349   3.349   3.349   3.349   3.349   3.349   3.349   3.349   3.349   3.349   3.349   3.349   3.349   3.349   3.349   3.349   3.349   3.349   3.349   3.349   3.349   3.349   3.349   3.349   3.349   3.349   3.349   3.349   3.349   3.349
    18.14    3.349   3.349   3.349   3.349   3.349   3.349   3.349   3.349   3.349   3.349   3.349   3.349   3.349   3.349   3.349   3.349   3.349   3.349   3.349   3.349   3.349   3.349   3.349   3.349   3.349   3.349   3.349   3.349   3.349   3.349   3.349   3.349   3.349   3.349   3.349   3.349
     9.57    3.349   3.349   3.349   3.349   3.349   3.349   3.349   3.349   3.349   3.349   3.349   3.349   3.349   3.349   3.349   3.349   3.349   3.349   3.349   3.349   3.349   3.349   3.349   3.349   3.349   3.349   3.349   3.349   3.349   3.349   3.349   3.349   3.349   3.349   3.349   3.349
     1.00    3.349   3.349   3.349   3.349   3.349   3.349   3.349   3.349   3.349   3.349   3.349   3.349   3.349   3.349   3.349   3.349   3.349   3.349   3.349   3.349   3.349   3.349   3.349   3.349   3.349   3.349   3.349   3.349   3.349   3.349   3.349   3.349   3.349   3.349   3.349   3.349

   Height   Standard deviation at grid points for the w component:
   301.00    3.349   3.349   3.349   3.349   3.349   3.349   3.349   3.349   3.349   3.349   3.349   3.349   3.349   3.349   3.349   3.349   3.349   3.349   3.349   3.349   3.349   3.349   3.349   3.349   3.349   3.349   3.349   3.349   3.349   3.349   3.349   3.349   3.349   3.349   3.349   3.349
   292.43    3.349   3.349   3.349   3.349   3.349   3.349   3.349   3.349   3.349   3.349   3.349   3.349   3.349   3.349   3.349   3.349   3.349   3.349   3.349   3.349   3.349   3.349   3.349   3.349   3.349   3.349   3.349   3.349   3.349   3.349   3.349   3.349   3.349   3.349   3.349   3.349
   283.86    3.349   3.349   3.349   3.349   3.349   3.349   3.349   3.349   3.349   3.349   3.349   3.349   3.349   3.349   3.349   3.349   3.349   3.349   3.349   3.349   3.349   3.349   3.349   3.349   3.349   3.349   3.349   3.349   3.349   3.349   3.349   3.349   3.349   3.349   3.349   3.349
   275.29    3.349   3.349   3.349   3.349   3.349   3.349   3.349   3.349   3.349   3.349   3.349   3.349   3.349   3.349   3.349   3.349   3.349   3.349   3.349   3.349   3.349   3.349   3.349   3.349   3.349   3.349   3.349   3.349   3.349   3.349   3.349   3.349   3.349   3.349   3.349   3.349
   266.71    3.349   3.349   3.349   3.349   3.349   3.349   3.349   3.349   3.349   3.349   3.349   3.349   3.349   3.349   3.349   3.349   3.349   3.349   3.349   3.349   3.349   3.349   3.349   3.349   3.349   3.349   3.349   3.349   3.349   3.349   3.349   3.349   3.349   3.349   3.349   3.349
   258.14    3.349   3.349   3.349   3.349   3.349   3.349   3.349   3.349   3.349   3.349   3.349   3.349   3.349   3.349   3.349   3.349   3.349   3.349   3.349   3.349   3.349   3.349   3.349   3.349   3.349   3.349   3.349   3.349   3.349   3.349   3.349   3.349   3.349   3.349   3.349   3.349
   249.57    3.349   3.349   3.349   3.349   3.349   3.349   3.349   3.349   3.349   3.349   3.349   3.349   3.349   3.349   3.349   3.349   3.349   3.349   3.349   3.349   3.349   3.349   3.349   3.349   3.349   3.349   3.349   3.349   3.349   3.349   3.349   3.349   3.349   3.349   3.349   3.349
   241.00    3.349   3.349   3.349   3.349   3.349   3.349   3.349   3.349   3.349   3.349   3.349   3.349   3.349   3.349   3.349   3.349   3.349   3.349   3.349   3.349   3.349   3.349   3.349   3.349   3.349   3.349   3.349   3.349   3.349   3.349   3.349   3.349   3.349   3.349   3.349   3.349
   232.43    3.349   3.349   3.349   3.349   3.349   3.349   3.349   3.349   3.349   3.349   3.349   3.349   3.349   3.349   3.349   3.349   3.349   3.349   3.349   3.349   3.349   3.349   3.349   3.349   3.349   3.349   3.349   3.349   3.349   3.349   3.349   3.349   3.349   3.349   3.349   3.349
   223.86    3.349   3.349   3.349   3.349   3.349   3.349   3.349   3.349   3.349   3.349   3.349   3.349   3.349   3.349   3.349   3.349   3.349   3.349   3.349   3.349   3.349   3.349   3.349   3.349   3.349   3.349   3.349   3.349   3.349   3.349   3.349   3.349   3.349   3.349   3.349   3.349
   215.29    3.349   3.349   3.349   3.349   3.349   3.349   3.349   3.349   3.349   3.349   3.349   3.349   3.349   3.349   3.349   3.349   3.349   3.349   3.349   3.349   3.349   3.349   3.349   3.349   3.349   3.349   3.349   3.349   3.349   3.349   3.349   3.349   3.349   3.349   3.349   3.349
   206.71    3.349   3.349   3.349   3.349   3.349   3.349   3.349   3.349   3.349   3.349   3.349   3.349   3.349   3.349   3.349   3.349   3.349   3.349   3.349   3.349   3.349   3.349   3.349   3.349   3.349   3.349   3.349   3.349   3.349   3.349   3.349   3.349   3.349   3.349   3.349   3.349
   198.14    3.349   3.349   3.349   3.349   3.349   3.349   3.349   3.349   3.349   3.349   3.349   3.349   3.349   3.349   3.349   3.349   3.349   3.349   3.349   3.349   3.349   3.349   3.349   3.349   3.349   3.349   3.349   3.349   3.349   3.349   3.349   3.349   3.349   3.349   3.349   3.349
   189.57    3.349   3.349   3.349   3.349   3.349   3.349   3.349   3.349   3.349   3.349   3.349   3.349   3.349   3.349   3.349   3.349   3.349   3.349   3.349   3.349   3.349   3.349   3.349   3.349   3.349   3.349   3.349   3.349   3.349   3.349   3.349   3.349   3.349   3.349   3.349   3.349
   181.00    3.349   3.349   3.349   3.349   3.349   3.349   3.349   3.349   3.349   3.349   3.349   3.349   3.349   3.349   3.349   3.349   3.349   3.349   3.349   3.349   3.349   3.349   3.349   3.349   3.349   3.349   3.349   3.349   3.349   3.349   3.349   3.349   3.349   3.349   3.349   3.349
   172.43    3.349   3.349   3.349   3.349   3.349   3.349   3.349   3.349   3.349   3.349   3.349   3.349   3.349   3.349   3.349   3.349   3.349   3.349   3.349   3.349   3.349   3.349   3.349   3.349   3.349   3.349   3.349   3.349   3.349   3.349   3.349   3.349   3.349   3.349   3.349   3.349
   163.86    3.349   3.349   3.349   3.349   3.349   3.349   3.349   3.349   3.349   3.349   3.349   3.349   3.349   3.349   3.349   3.349   3.349   3.349   3.349   3.349   3.349   3.349   3.349   3.349   3.349   3.349   3.349   3.349   3.349   3.349   3.349   3.349   3.349   3.349   3.349   3.349
   155.29    3.349   3.349   3.349   3.349   3.349   3.349   3.349   3.349   3.349   3.349   3.349   3.349   3.349   3.349   3.349   3.349   3.349   3.349   3.349   3.349   3.349   3.349   3.349   3.349   3.349   3.349   3.349   3.349   3.349   3.349   3.349   3.349   3.349   3.349   3.349   3.349
   146.71    3.349   3.349   3.349   3.349   3.349   3.349   3.349   3.349   3.349   3.349   3.349   3.349   3.349   3.349   3.349   3.349   3.349   3.349   3.349   3.349   3.349   3.349   3.349   3.349   3.349   3.349   3.349   3.349   3.349   3.349   3.349   3.349   3.349   3.349   3.349   3.349
   138.14    3.349   3.349   3.349   3.349   3.349   3.349   3.349   3.349   3.349   3.349   3.349   3.349   3.349   3.349   3.349   3.349   3.349   3.349   3.349   3.349   3.349   3.349   3.349   3.349   3.349   3.349   3.349   3.349   3.349   3.349   3.349   3.349   3.349   3.349   3.349   3.349
   129.57    3.349   3.349   3.349   3.349   3.349   3.349   3.349   3.349   3.349   3.349   3.349   3.349   3.349   3.349   3.349   3.349   3.349   3.349   3.349   3.349   3.349   3.349   3.349   3.349   3.349   3.349   3.349   3.349   3.349   3.349   3.349   3.349   3.349   3.349   3.349   3.349
   121.00    3.349   3.349   3.349   3.349   3.349   3.349   3.349   3.349   3.349   3.349   3.349   3.349   3.349   3.349   3.349   3.349   3.349   3.349   3.349   3.349   3.349   3.349   3.349   3.349   3.349   3.349   3.349   3.349   3.349   3.349   3.349   3.349   3.349   3.349   3.349   3.349
   112.43    3.349   3.349   3.349   3.349   3.349   3.349   3.349   3.349   3.349   3.349   3.349   3.349   3.349   3.349   3.349   3.349   3.349   3.349   3.349   3.349   3.349   3.349   3.349   3.349   3.349   3.349   3.349   3.349   3.349   3.349   3.349   3.349   3.349   3.349   3.349   3.349
   103.86    3.349   3.349   3.349   3.349   3.349   3.349   3.349   3.349   3.349   3.349   3.349   3.349   3.349   3.349   3.349   3.349   3.349   3.349   3.349   3.349   3.349   3.349   3.349   3.349   3.349   3.349   3.349   3.349   3.349   3.349   3.349   3.349   3.349   3.349   3.349   3.349
    95.29    3.349   3.349   3.349   3.349   3.349   3.349   3.349   3.349   3.349   3.349   3.349   3.349   3.349   3.349   3.349   3.349   3.349   3.349   3.349   3.349   3.349   3.349   3.349   3.349   3.349   3.349   3.349   3.349   3.349   3.349   3.349   3.349   3.349   3.349   3.349   3.349
    86.71    3.349   3.349   3.349   3.349   3.349   3.349   3.349   3.349   3.349   3.349   3.349   3.349   3.349   3.349   3.349   3.349   3.349   3.349   3.349   3.349   3.349   3.349   3.349   3.349   3.349   3.349   3.349   3.349   3.349   3.349   3.349   3.349   3.349   3.349   3.349   3.349
    78.14    3.349   3.349   3.349   3.349   3.349   3.349   3.349   3.349   3.349   3.349   3.349   3.349   3.349   3.349   3.349   3.349   3.349   3.349   3.349   3.349   3.349   3.349   3.349   3.349   3.349   3.349   3.349   3.349   3.349   3.349   3.349   3.349   3.349   3.349   3.349   3.349
    69.57    3.349   3.349   3.349   3.349   3.349   3.349   3.349   3.349   3.349   3.349   3.349   3.349   3.349   3.349   3.349   3.349   3.349   3.349   3.349   3.349   3.349   3.349   3.349   3.349   3.349   3.349   3.349   3.349   3.349   3.349   3.349   3.349   3.349   3.349   3.349   3.349
    61.00    3.349   3.349   3.349   3.349   3.349   3.349   3.349   3.349   3.349   3.349   3.349   3.349   3.349   3.349   3.349   3.349   3.349   3.349   3.349   3.349   3.349   3.349   3.349   3.349   3.349   3.349   3.349   3.349   3.349   3.349   3.349   3.349   3.349   3.349   3.349   3.349
    52.43    3.349   3.349   3.349   3.349   3.349   3.349   3.349   3.349   3.349   3.349   3.349   3.349   3.349   3.349   3.349   3.349   3.349   3.349   3.349   3.349   3.349   3.349   3.349   3.349   3.349   3.349   3.349   3.349   3.349   3.349   3.349   3.349   3.349   3.349   3.349   3.349
    43.86    3.349   3.349   3.349   3.349   3.349   3.349   3.349   3.349   3.349   3.349   3.349   3.349   3.349   3.349   3.349   3.349   3.349   3.349   3.349   3.349   3.349   3.349   3.349   3.349   3.349   3.349   3.349   3.349   3.349   3.349   3.349   3.349   3.349   3.349   3.349   3.349
    35.29    3.349   3.349   3.349   3.349   3.349   3.349   3.349   3.349   3.349   3.349   3.349   3.349   3.349   3.349   3.349   3.349   3.349   3.349   3.349   3.349   3.349   3.349   3.349   3.349   3.349   3.349   3.349   3.349   3.349   3.349   3.349   3.349   3.349   3.349   3.349   3.349
    26.71    3.349   3.349   3.349   3.349   3.349   3.349   3.349   3.349   3.349   3.349   3.349   3.349   3.349   3.349   3.349   3.349   3.349   3.349   3.349   3.349   3.349   3.349   3.349   3.349   3.349   3.349   3.349   3.349   3.349   3.349   3.349   3.349   3.349   3.349   3.349   3.349
    18.14    3.349   3.349   3.349   3.349   3.349   3.349   3.349   3.349   3.349   3.349   3.349   3.349   3.349   3.349   3.349   3.349   3.349   3.349   3.349   3.349   3.349   3.349   3.349   3.349   3.349   3.349   3.349   3.349   3.349   3.349   3.349   3.349   3.349   3.349   3.349   3.349
     9.57    3.349   3.349   3.349   3.349   3.349   3.349   3.349   3.349   3.349   3.349   3.349   3.349   3.349   3.349   3.349   3.349   3.349   3.349   3.349   3.349   3.349   3.349   3.349   3.349   3.349   3.349   3.349   3.349   3.349   3.349   3.349   3.349   3.349   3.349   3.349   3.349
     1.00    3.349   3.349   3.349   3.349   3.349   3.349   3.349   3.349   3.349   3.349   3.349   3.349   3.349   3.349   3.349   3.349   3.349   3.349   3.349   3.349   3.349   3.349   3.349   3.349   3.349   3.349   3.349   3.349   3.349   3.349   3.349   3.349   3.349   3.349   3.349   3.349

   Mean standard deviation across all grid points:
      u component:    3.250 m/s
      v component:    3.349 m/s
      w component:    3.349 m/s


U-component (X) statistics from the interpolated hub point:

   Mean =  20.9435 m/s
   TI   =  14.3266 %


Normalizing Parameters for Binary Data (approximate statistics):

   UBar  =  20.9448 m/s
   TI(u) =  15.7190 %
   TI(v) =  15.9910 %
   TI(w) =  15.9910 %

   Height Offset =   0.0000 m
   Grid Base     =   1.0000 m

Creating a PERIODIC output file.


Processing complete.  113.52 CPU seconds used.
