
This summary file was generated by TurbSim (v2.00.07a-bjj, 14-Jun-2016) on 03-Nov-2023 at 03:24:06.


Runtime Options:

      3501  Random seed #1
    RANLUX  Type of random number generator
         F  Output binary HH turbulence parameters?
         F  Output formatted turbulence parameters?
         F  Output AeroDyn HH files?
         F  Output AeroDyn FF files?
         T  Output BLADED FF files?
         F  Output tower data?
         F  Output formatted FF files?
         F  Output coherent turbulence time step file?
         T  Clockwise rotation when looking downwind?
 0 -  NONE  IEC turbulence models scaled to exact specified standard deviation


Turbine/Model Specifications:

        36  Vertical grid-point matrix dimension
        36  Horizontal grid-point matrix dimension
     0.100  Time step [seconds]
   660.000  Analysis time [seconds]
   660.000  Usable output time [seconds]
   151.000  Hub height [m]
   300.000  Grid height [m]
   300.000  Grid width [m]
     0.000  Vertical flow angle [degrees]
     0.000  Horizontal flow angle [degrees]


Meteorological Boundary Conditions:

    IECVKM  IEC von Karman spectral model
         1  IEC standard: IEC 61400-1 Ed. 3: 2005
         A  IEC turbulence characteristic
       NTM  IEC Normal Turbulence Model
       N/A  IEC Extreme Turbulence Model (ETM) "c" parameter [m/s]
       PL   Wind profile type
   153.000  Reference height [m]
    16.000  Reference wind speed [m/s]
       N/A  Jet height [m]
     0.200  Power law exponent
     0.030  Surface roughness length [m]


Non-IEC Meteorological Boundary Conditions:

       N/A  Site latitude [degrees]
       N/A  Gradient Richardson number
       N/A  Friction or shear velocity [m/s]
       N/A  Mixing layer depth [m]
       N/A  Mean hub u'w' Reynolds stress
       N/A  Mean hub u'v' Reynolds stress
       N/A  Mean hub v'w' Reynolds stress


Spatial Coherence Models:

       IEC  u-component coherence model
      NONE  v-component coherence model
      NONE  w-component coherence model
(   12.000, 0.353E-03)  u-component coherence parameters
                   N/A  v-component coherence parameters
                   N/A  w-component coherence parameters
       N/A  Coherence exponent


You have requested that the following file(s) be generated:

   G:\2023\OpenWECDV1.0.0_x64\BaseLIne\wind\WindL_V_16_seed_3501.wnd (AeroDyn/BLADED full-field wnd file)


Turbulence Simulation Scaling Parameter Summary:

   Turbulence model used                            =  IEC von Karman
   Turbulence characteristic                        =  A
   IEC turbulence type                              =  Normal Turbulence Model
   IEC standard                                     =  IEC 61400-1 Ed. 3: 2005
   Mean wind speed at hub height                    =   15.958 m/s
   Expected value of turbulence intensity at 15 m/s =   16.000%
   Characteristic value of standard deviation       =    2.811 m/s
   Turbulence scale                                 =   42.000 m
   Isotropic integral scale                         =  147.000 m
   Characteristic value of hub turbulence intensity =   17.615%
   Gradient Richardson number                       =    0.000

   Wind profile type                                =  Power law
   Power law exponent                               =    0.200
   Mean shear across rotor disk                     =    0.042 (m/s)/m
   Assumed rotor diameter                           =  300.000 m
   Surface roughness length                         =    0.030 m

   Nyquist frequency of turbulent wind field        =    5.000 Hz

   Number of time steps in the FFT                  =     6600
   Number of time steps output                      =     6600
   Number of points simulated                       =     1297


Mean Flow Angles:

   Vertical   =   0.0 degrees
   Horizontal =   0.0 degrees

Mean Wind Speed Profile:

   Height    Wind Speed   Horizontal Angle  Vertical Angle  U-comp (X)   V-comp (Y)   W-comp (Z)
     (m)        (m/s)         (degrees)       (degrees)       (m/s)        (m/s)        (m/s)   
   ------    ----------   ----------------  --------------  ----------   ----------   ----------
    301.0       18.32            0.00            0.00         18.32         0.00         0.00
    292.4       18.21            0.00            0.00         18.21         0.00         0.00
    283.9       18.11            0.00            0.00         18.11         0.00         0.00
    275.3       17.99            0.00            0.00         17.99         0.00         0.00
    266.7       17.88            0.00            0.00         17.88         0.00         0.00
    258.1       17.76            0.00            0.00         17.76         0.00         0.00
    249.6       17.64            0.00            0.00         17.64         0.00         0.00
    241.0       17.52            0.00            0.00         17.52         0.00         0.00
    232.4       17.40            0.00            0.00         17.40         0.00         0.00
    223.9       17.27            0.00            0.00         17.27         0.00         0.00
    215.3       17.13            0.00            0.00         17.13         0.00         0.00
    206.7       16.99            0.00            0.00         16.99         0.00         0.00
    198.1       16.85            0.00            0.00         16.85         0.00         0.00
    189.6       16.70            0.00            0.00         16.70         0.00         0.00
    181.0       16.55            0.00            0.00         16.55         0.00         0.00
    172.4       16.39            0.00            0.00         16.39         0.00         0.00
    163.9       16.22            0.00            0.00         16.22         0.00         0.00
    155.3       16.05            0.00            0.00         16.05         0.00         0.00
    151.0       15.96            0.00            0.00         15.96         0.00         0.00
    146.7       15.87            0.00            0.00         15.87         0.00         0.00
    138.1       15.68            0.00            0.00         15.68         0.00         0.00
    129.6       15.48            0.00            0.00         15.48         0.00         0.00
    121.0       15.27            0.00            0.00         15.27         0.00         0.00
    112.4       15.04            0.00            0.00         15.04         0.00         0.00
    103.9       14.81            0.00            0.00         14.81         0.00         0.00
     95.3       14.55            0.00            0.00         14.55         0.00         0.00
     86.7       14.28            0.00            0.00         14.28         0.00         0.00
     78.1       13.99            0.00            0.00         13.99         0.00         0.00
     69.6       13.67            0.00            0.00         13.67         0.00         0.00
     61.0       13.31            0.00            0.00         13.31         0.00         0.00
     52.4       12.92            0.00            0.00         12.92         0.00         0.00
     43.9       12.46            0.00            0.00         12.46         0.00         0.00
     35.3       11.93            0.00            0.00         11.93         0.00         0.00
     26.7       11.29            0.00            0.00         11.29         0.00         0.00
     18.1       10.45            0.00            0.00         10.45         0.00         0.00
      9.6        9.19            0.00            0.00          9.19         0.00         0.00
      1.0        5.85            0.00            0.00          5.85         0.00         0.00


Harvested Random Seeds after Generation of the Random Numbers:

    119307688 K 1
            0 K 2


Hub-Height Simulated Turbulence Statistical Summary:

   Type of Wind        Min (m/s)   Mean (m/s)    Max (m/s)  Sigma (m/s)       TI (%)
   ----------------    ---------   ----------    ---------  -----------       ------
   Longitudinal (u)         6.76        15.96        25.39        2.822       17.683
   Lateral (v)            -10.43         0.00         7.67        2.762       17.306
   Vertical (w)            -9.03         0.00         7.39        2.762       17.306
   U component              6.76        15.96        25.39        2.822       17.683
   V component            -10.43         0.00         7.67        2.762       17.306
   W component             -9.03         0.00         7.39        2.762       17.306
   Horizontal (U&V)         6.89        16.20        25.43        2.779       17.149
   Total                    6.93        16.44        25.47        2.730       16.604

                       Min Reynolds     Mean Reynolds    Max Reynolds    Correlation
   Product             Stress (m/s)^2   Stress (m/s)^2   Stress (m/s)^2  Coefficient
   ----------------    --------------   --------------   --------------  -----------
   u'w'                    -41.381             0.630            39.478         0.081
   u'v'                    -41.809            -0.513            48.557        -0.066
   v'w'                    -37.913             1.368            57.403         0.179


   Friction Velocity (Ustar)  =      0.794 m/s
   Maximum Instantaneous TKE  =     65.180 (m/s)^2
   Maximum Instantaneous CTKE =     28.779 (m/s)^2


Grid Point Variance Summary:

   Y-coord -150.00 -141.43 -132.86 -124.29 -115.71 -107.14  -98.57  -90.00  -81.43  -72.86  -64.29  -55.71  -47.14  -38.57  -30.00  -21.43  -12.86   -4.29    4.29   12.86   21.43   30.00   38.57   47.14   55.71   64.29   72.86   81.43   90.00   98.57  107.14  115.71  124.29  132.86  141.43  150.00

   Height   Standard deviation at grid points for the u component:
   301.00    3.046   2.927   2.842   2.794   2.755   2.870   2.900   2.821   2.794   2.778   2.849   2.876   2.847   3.000   3.007   2.926   2.792   2.836   2.836   2.852   2.844   2.679   2.707   2.770   2.812   2.789   2.879   2.938   2.988   2.809   2.781   2.726   2.840   2.978   3.103   2.885
   292.43    3.084   3.035   2.938   2.802   2.744   2.636   2.799   2.719   2.727   2.937   2.897   3.013   2.942   2.953   2.870   2.796   2.693   2.752   2.788   2.891   2.730   2.753   2.707   2.858   2.737   2.839   3.024   2.871   3.014   2.837   2.669   2.732   2.808   2.871   3.010   2.884
   283.86    3.189   3.197   2.997   2.881   2.754   2.774   2.591   2.742   2.835   2.799   2.701   2.782   2.801   2.931   2.871   2.868   2.782   2.905   2.927   2.927   2.755   2.809   2.967   2.803   2.762   2.912   2.945   2.891   2.921   2.790   2.739   2.827   2.850   2.878   2.779   2.891
   275.29    3.083   2.990   2.892   2.966   2.833   2.709   2.775   2.788   2.709   2.681   2.642   2.652   2.619   2.643   2.847   2.949   2.862   2.858   3.017   3.009   2.900   3.072   2.972   2.840   2.853   2.895   2.903   2.779   2.911   2.868   2.607   2.712   2.910   2.946   2.852   2.888
   266.71    3.112   2.966   2.945   2.953   2.843   2.731   2.713   2.629   2.487   2.563   2.745   2.606   2.554   2.599   2.879   2.879   2.857   2.847   2.794   2.836   2.995   3.073   2.977   2.728   2.787   2.842   2.874   2.850   2.884   2.804   2.794   2.777   2.822   2.768   2.798   2.729
   258.14    2.906   2.834   3.004   3.012   2.918   2.874   2.830   2.777   2.568   2.565   2.694   2.597   2.595   2.681   2.640   2.668   2.849   2.799   2.762   2.826   2.778   2.910   2.788   2.815   2.726   2.921   2.872   2.845   2.959   2.843   2.730   2.872   2.649   2.642   2.673   2.638
   249.57    2.939   2.961   2.904   2.934   2.946   2.801   2.986   2.948   2.841   2.880   2.601   2.643   2.595   2.707   2.693   2.714   2.781   2.774   2.848   2.951   2.766   2.890   2.794   2.842   2.738   2.692   2.803   2.832   2.762   2.827   2.833   2.902   2.545   2.423   2.471   2.596
   241.00    3.171   2.970   2.946   2.659   2.722   2.601   2.816   2.990   2.990   2.968   2.747   2.649   2.719   2.650   2.763   2.707   2.748   2.731   2.754   2.852   2.858   2.849   2.858   2.760   2.756   2.753   2.796   2.770   2.869   2.996   2.916   2.832   2.702   2.525   2.399   2.603
   232.43    3.174   3.021   3.053   2.805   2.673   2.786   2.697   2.906   3.010   2.811   2.732   2.824   2.674   2.647   2.692   2.810   2.733   2.820   2.891   2.923   2.821   2.674   2.790   2.784   2.800   2.824   2.709   2.825   2.820   2.777   2.753   2.718   2.565   2.450   2.480   2.703
   223.86    3.120   2.948   2.831   2.806   2.768   2.835   2.909   2.976   2.909   2.922   2.955   2.730   2.604   2.702   2.837   2.794   2.765   2.852   2.758   2.783   2.744   2.848   2.829   2.922   2.830   2.800   2.802   2.829   2.676   2.776   2.778   2.762   2.729   2.472   2.550   2.612
   215.29    2.964   2.958   2.855   2.773   2.850   2.817   2.896   2.984   2.953   2.845   2.887   2.791   2.756   2.683   2.777   2.819   2.734   2.774   2.796   2.722   2.653   2.891   2.783   2.692   2.741   2.821   2.777   2.630   2.581   2.549   2.671   2.779   2.719   2.485   2.632   2.661
   206.71    3.058   3.051   2.936   2.943   2.995   2.862   2.776   2.860   3.006   2.945   2.694   2.695   2.603   2.735   2.808   2.596   2.766   2.779   2.874   2.773   2.842   2.917   2.902   2.710   2.725   2.700   2.740   2.597   2.502   2.349   2.559   2.791   2.830   2.472   2.492   2.522
   198.14    2.961   2.941   2.872   2.749   2.829   2.698   2.793   2.869   2.883   2.833   2.668   2.634   2.491   2.640   2.515   2.614   2.715   2.779   2.661   2.714   2.942   2.885   2.901   2.634   2.663   2.779   2.939   2.806   2.757   2.456   2.565   2.766   2.817   2.582   2.502   2.422
   189.57    2.781   2.732   2.661   2.651   2.776   2.868   2.742   2.782   2.810   2.861   2.769   2.682   2.640   2.739   2.493   2.728   2.786   2.773   2.613   2.670   2.753   2.770   2.732   2.822   2.578   2.780   2.857   2.766   2.758   2.601   2.614   2.680   2.650   2.876   2.831   2.650
   181.00    2.595   2.472   2.497   2.745   2.796   2.762   2.824   2.770   2.792   2.721   2.760   2.790   2.803   2.776   2.616   2.824   2.785   2.637   2.481   2.662   2.594   2.699   2.716   2.764   2.665   2.776   2.846   2.921   2.794   2.567   2.711   2.856   2.681   2.760   2.625   2.723
   172.43    2.672   2.718   2.600   2.752   2.640   2.790   2.798   2.885   2.776   2.608   2.702   2.905   2.943   2.903   2.708   2.670   2.847   2.709   2.634   2.644   2.707   2.714   2.869   2.686   2.555   2.712   2.857   2.708   2.710   2.632   2.561   2.785   2.787   2.750   2.864   2.787
   163.86    2.691   2.692   2.802   2.832   2.767   2.832   2.742   2.856   2.859   2.749   2.840   2.933   2.797   2.756   2.866   2.790   2.788   2.771   2.683   2.652   2.699   2.493   2.744   2.800   2.805   2.722   2.670   2.610   2.708   2.696   2.603   2.761   2.837   2.720   2.785   2.750
   155.29    2.629   2.661   2.684   2.783   2.815   2.936   2.929   2.791   2.935   2.848   2.844   2.922   2.874   2.805   3.008   2.906   2.857   2.863   2.710   2.737   2.662   2.615   2.635   2.712   2.837   2.679   2.584   2.696   2.833   2.798   2.778   2.833   2.790   2.825   2.766   2.691
   146.71    2.593   2.585   2.810   2.863   2.904   2.877   2.917   2.949   3.008   2.776   2.740   2.885   2.956   2.878   2.954   2.909   2.732   2.659   2.789   2.777   2.703   2.545   2.642   2.553   2.765   2.648   2.566   2.715   2.662   2.831   2.751   2.793   2.816   2.759   2.773   2.789
   138.14    2.656   2.694   2.702   2.872   2.954   3.060   2.916   2.946   3.028   3.005   2.832   2.923   3.017   2.974   2.947   2.715   2.617   2.629   2.805   2.785   2.728   2.607   2.702   2.639   2.788   2.701   2.660   2.714   2.555   2.772   2.693   2.688   2.792   2.780   2.749   2.859
   129.57    2.540   2.600   2.663   2.879   3.002   2.972   2.970   2.923   2.856   2.884   2.664   2.920   3.135   3.151   2.902   2.754   2.534   2.730   2.794   2.668   2.674   2.728   2.712   2.654   2.757   2.675   2.732   2.625   2.621   2.701   2.712   2.696   2.667   2.766   2.760   2.758
   121.00    2.631   2.703   2.700   2.681   2.841   2.922   2.855   2.798   2.713   2.708   2.706   2.858   2.970   2.982   2.919   2.985   2.525   2.689   2.534   2.472   2.691   2.782   2.803   2.696   2.685   2.633   2.468   2.549   2.640   2.672   2.757   2.765   2.745   2.756   2.909   2.897
   112.43    2.675   2.649   2.745   2.740   2.869   2.717   2.758   2.634   2.779   2.790   2.683   2.779   2.850   2.805   2.848   2.850   2.719   2.622   2.408   2.485   2.586   2.730   2.722   2.791   2.672   2.726   2.658   2.691   2.690   2.679   2.723   2.671   2.729   2.815   2.996   2.965
   103.86    2.648   2.692   2.712   2.861   2.810   2.754   2.762   2.706   2.724   2.767   2.573   2.753   2.772   2.839   2.871   2.842   2.775   2.651   2.613   2.522   2.531   2.651   2.741   2.774   2.677   2.647   2.654   2.707   2.649   2.680   2.628   2.667   2.781   2.699   2.819   3.003
    95.29    2.594   2.671   2.792   2.823   2.899   2.843   2.837   2.755   2.663   2.804   2.798   2.786   2.737   2.894   2.777   2.852   2.718   2.690   2.610   2.577   2.585   2.649   2.684   2.746   2.760   2.665   2.705   2.528   2.694   2.696   2.681   2.772   2.633   2.763   2.952   2.887
    86.71    2.584   2.531   2.696   2.948   2.846   2.873   2.914   2.688   2.669   2.609   2.846   2.833   2.764   2.712   2.824   2.817   2.963   2.876   2.810   2.752   2.674   2.574   2.594   2.669   2.790   2.605   2.822   2.813   2.642   2.647   2.756   2.739   2.827   2.803   2.983   2.729
    78.14    2.686   2.629   2.751   2.706   2.917   2.988   2.889   2.795   2.780   2.846   2.862   2.851   2.677   2.550   2.632   2.650   2.778   2.859   2.880   2.880   2.781   2.607   2.338   2.500   2.795   2.680   2.681   2.730   2.710   2.863   2.785   2.652   2.767   2.797   2.885   2.712
    69.57    2.605   2.522   2.803   2.907   3.038   2.893   2.811   2.779   2.804   2.770   2.786   2.651   2.609   2.492   2.528   2.614   2.699   2.785   2.954   2.841   2.630   2.742   2.641   2.559   2.644   2.851   2.663   2.757   2.820   2.917   2.852   2.755   2.763   2.793   2.903   2.852
    61.00    2.614   2.646   2.658   2.842   2.954   3.020   2.823   2.738   2.683   2.702   2.702   2.695   2.646   2.460   2.658   2.657   2.713   2.880   2.983   2.859   2.530   2.692   2.724   2.521   2.670   2.831   2.764   2.749   2.908   2.951   2.730   2.845   2.881   2.720   2.895   2.822
    52.43    2.692   2.791   2.833   2.893   2.994   2.991   2.842   2.786   2.645   2.631   2.677   2.767   2.772   2.678   2.780   2.766   2.839   2.779   2.901   2.851   2.671   2.712   2.964   2.916   2.687   2.868   2.781   2.814   2.955   2.876   2.714   2.755   2.796   2.928   2.807   2.786
    43.86    2.842   2.831   2.985   3.011   2.971   2.930   2.878   2.796   2.799   2.621   2.890   2.758   2.822   2.885   2.877   2.871   2.950   2.954   2.938   2.774   2.715   2.758   2.902   2.924   2.935   2.931   2.743   2.736   2.665   2.832   2.808   2.853   2.927   2.931   2.749   2.647
    35.29    2.958   2.901   2.949   3.111   3.111   2.901   2.657   2.807   2.936   2.805   2.939   2.892   2.744   2.898   3.101   3.119   3.137   2.969   2.970   2.871   2.643   2.745   2.738   2.691   2.891   2.781   2.742   2.828   2.635   2.768   2.732   2.841   2.868   2.790   2.701   2.592
    26.71    2.995   2.805   2.983   3.126   2.912   2.641   2.809   2.885   3.010   2.855   2.956   2.843   2.672   2.669   2.973   3.064   2.906   2.885   2.986   2.890   2.797   2.764   2.749   2.652   2.797   2.716   2.674   2.676   2.719   2.597   2.626   2.769   2.855   2.700   2.527   2.537
    18.14    2.895   2.858   2.912   2.867   2.793   2.588   2.647   2.777   2.907   2.971   2.945   2.966   2.927   2.730   2.880   3.127   3.050   3.069   3.096   2.937   2.997   2.830   2.625   2.622   2.633   2.565   2.796   2.777   2.806   2.662   2.547   2.680   2.716   2.709   2.615   2.550
     9.57    2.825   2.988   2.904   2.807   2.762   2.708   2.858   2.758   2.900   2.655   2.675   2.920   2.984   2.840   3.209   3.141   3.164   3.179   3.210   3.076   3.023   3.043   2.707   2.702   2.669   2.786   2.897   2.939   3.021   2.900   2.763   2.720   2.537   2.650   2.620   2.757
     1.00    2.750   2.798   2.692   2.772   2.732   2.565   2.719   2.860   2.837   2.899   3.014   2.969   3.016   3.109   3.232   3.414   3.403   3.138   3.220   3.098   3.140   3.121   2.885   2.809   2.645   2.670   2.787   2.736   2.961   2.927   2.739   2.765   2.722   2.756   2.674   2.852

   Height   Standard deviation at grid points for the v component:
   301.00    2.762   2.762   2.762   2.762   2.762   2.762   2.762   2.762   2.762   2.762   2.762   2.762   2.762   2.762   2.762   2.762   2.762   2.762   2.762   2.762   2.762   2.762   2.762   2.762   2.762   2.762   2.762   2.762   2.762   2.762   2.762   2.762   2.762   2.762   2.762   2.762
   292.43    2.762   2.762   2.762   2.762   2.762   2.762   2.762   2.762   2.762   2.762   2.762   2.762   2.762   2.762   2.762   2.762   2.762   2.762   2.762   2.762   2.762   2.762   2.762   2.762   2.762   2.762   2.762   2.762   2.762   2.762   2.762   2.762   2.762   2.762   2.762   2.762
   283.86    2.762   2.762   2.762   2.762   2.762   2.762   2.762   2.762   2.762   2.762   2.762   2.762   2.762   2.762   2.762   2.762   2.762   2.762   2.762   2.762   2.762   2.762   2.762   2.762   2.762   2.762   2.762   2.762   2.762   2.762   2.762   2.762   2.762   2.762   2.762   2.762
   275.29    2.762   2.762   2.762   2.762   2.762   2.762   2.762   2.762   2.762   2.762   2.762   2.762   2.762   2.762   2.762   2.762   2.762   2.762   2.762   2.762   2.762   2.762   2.762   2.762   2.762   2.762   2.762   2.762   2.762   2.762   2.762   2.762   2.762   2.762   2.762   2.762
   266.71    2.762   2.762   2.762   2.762   2.762   2.762   2.762   2.762   2.762   2.762   2.762   2.762   2.762   2.762   2.762   2.762   2.762   2.762   2.762   2.762   2.762   2.762   2.762   2.762   2.762   2.762   2.762   2.762   2.762   2.762   2.762   2.762   2.762   2.762   2.762   2.762
   258.14    2.762   2.762   2.762   2.762   2.762   2.762   2.762   2.762   2.762   2.762   2.762   2.762   2.762   2.762   2.762   2.762   2.762   2.762   2.762   2.762   2.762   2.762   2.762   2.762   2.762   2.762   2.762   2.762   2.762   2.762   2.762   2.762   2.762   2.762   2.762   2.762
   249.57    2.762   2.762   2.762   2.762   2.762   2.762   2.762   2.762   2.762   2.762   2.762   2.762   2.762   2.762   2.762   2.762   2.762   2.762   2.762   2.762   2.762   2.762   2.762   2.762   2.762   2.762   2.762   2.762   2.762   2.762   2.762   2.762   2.762   2.762   2.762   2.762
   241.00    2.762   2.762   2.762   2.762   2.762   2.762   2.762   2.762   2.762   2.762   2.762   2.762   2.762   2.762   2.762   2.762   2.762   2.762   2.762   2.762   2.762   2.762   2.762   2.762   2.762   2.762   2.762   2.762   2.762   2.762   2.762   2.762   2.762   2.762   2.762   2.762
   232.43    2.762   2.762   2.762   2.762   2.762   2.762   2.762   2.762   2.762   2.762   2.762   2.762   2.762   2.762   2.762   2.762   2.762   2.762   2.762   2.762   2.762   2.762   2.762   2.762   2.762   2.762   2.762   2.762   2.762   2.762   2.762   2.762   2.762   2.762   2.762   2.762
   223.86    2.762   2.762   2.762   2.762   2.762   2.762   2.762   2.762   2.762   2.762   2.762   2.762   2.762   2.762   2.762   2.762   2.762   2.762   2.762   2.762   2.762   2.762   2.762   2.762   2.762   2.762   2.762   2.762   2.762   2.762   2.762   2.762   2.762   2.762   2.762   2.762
   215.29    2.762   2.762   2.762   2.762   2.762   2.762   2.762   2.762   2.762   2.762   2.762   2.762   2.762   2.762   2.762   2.762   2.762   2.762   2.762   2.762   2.762   2.762   2.762   2.762   2.762   2.762   2.762   2.762   2.762   2.762   2.762   2.762   2.762   2.762   2.762   2.762
   206.71    2.762   2.762   2.762   2.762   2.762   2.762   2.762   2.762   2.762   2.762   2.762   2.762   2.762   2.762   2.762   2.762   2.762   2.762   2.762   2.762   2.762   2.762   2.762   2.762   2.762   2.762   2.762   2.762   2.762   2.762   2.762   2.762   2.762   2.762   2.762   2.762
   198.14    2.762   2.762   2.762   2.762   2.762   2.762   2.762   2.762   2.762   2.762   2.762   2.762   2.762   2.762   2.762   2.762   2.762   2.762   2.762   2.762   2.762   2.762   2.762   2.762   2.762   2.762   2.762   2.762   2.762   2.762   2.762   2.762   2.762   2.762   2.762   2.762
   189.57    2.762   2.762   2.762   2.762   2.762   2.762   2.762   2.762   2.762   2.762   2.762   2.762   2.762   2.762   2.762   2.762   2.762   2.762   2.762   2.762   2.762   2.762   2.762   2.762   2.762   2.762   2.762   2.762   2.762   2.762   2.762   2.762   2.762   2.762   2.762   2.762
   181.00    2.762   2.762   2.762   2.762   2.762   2.762   2.762   2.762   2.762   2.762   2.762   2.762   2.762   2.762   2.762   2.762   2.762   2.762   2.762   2.762   2.762   2.762   2.762   2.762   2.762   2.762   2.762   2.762   2.762   2.762   2.762   2.762   2.762   2.762   2.762   2.762
   172.43    2.762   2.762   2.762   2.762   2.762   2.762   2.762   2.762   2.762   2.762   2.762   2.762   2.762   2.762   2.762   2.762   2.762   2.762   2.762   2.762   2.762   2.762   2.762   2.762   2.762   2.762   2.762   2.762   2.762   2.762   2.762   2.762   2.762   2.762   2.762   2.762
   163.86    2.762   2.762   2.762   2.762   2.762   2.762   2.762   2.762   2.762   2.762   2.762   2.762   2.762   2.762   2.762   2.762   2.762   2.762   2.762   2.762   2.762   2.762   2.762   2.762   2.762   2.762   2.762   2.762   2.762   2.762   2.762   2.762   2.762   2.762   2.762   2.762
   155.29    2.762   2.762   2.762   2.762   2.762   2.762   2.762   2.762   2.762   2.762   2.762   2.762   2.762   2.762   2.762   2.762   2.762   2.762   2.762   2.762   2.762   2.762   2.762   2.762   2.762   2.762   2.762   2.762   2.762   2.762   2.762   2.762   2.762   2.762   2.762   2.762
   146.71    2.762   2.762   2.762   2.762   2.762   2.762   2.762   2.762   2.762   2.762   2.762   2.762   2.762   2.762   2.762   2.762   2.762   2.762   2.762   2.762   2.762   2.762   2.762   2.762   2.762   2.762   2.762   2.762   2.762   2.762   2.762   2.762   2.762   2.762   2.762   2.762
   138.14    2.762   2.762   2.762   2.762   2.762   2.762   2.762   2.762   2.762   2.762   2.762   2.762   2.762   2.762   2.762   2.762   2.762   2.762   2.762   2.762   2.762   2.762   2.762   2.762   2.762   2.762   2.762   2.762   2.762   2.762   2.762   2.762   2.762   2.762   2.762   2.762
   129.57    2.762   2.762   2.762   2.762   2.762   2.762   2.762   2.762   2.762   2.762   2.762   2.762   2.762   2.762   2.762   2.762   2.762   2.762   2.762   2.762   2.762   2.762   2.762   2.762   2.762   2.762   2.762   2.762   2.762   2.762   2.762   2.762   2.762   2.762   2.762   2.762
   121.00    2.762   2.762   2.762   2.762   2.762   2.762   2.762   2.762   2.762   2.762   2.762   2.762   2.762   2.762   2.762   2.762   2.762   2.762   2.762   2.762   2.762   2.762   2.762   2.762   2.762   2.762   2.762   2.762   2.762   2.762   2.762   2.762   2.762   2.762   2.762   2.762
   112.43    2.762   2.762   2.762   2.762   2.762   2.762   2.762   2.762   2.762   2.762   2.762   2.762   2.762   2.762   2.762   2.762   2.762   2.762   2.762   2.762   2.762   2.762   2.762   2.762   2.762   2.762   2.762   2.762   2.762   2.762   2.762   2.762   2.762   2.762   2.762   2.762
   103.86    2.762   2.762   2.762   2.762   2.762   2.762   2.762   2.762   2.762   2.762   2.762   2.762   2.762   2.762   2.762   2.762   2.762   2.762   2.762   2.762   2.762   2.762   2.762   2.762   2.762   2.762   2.762   2.762   2.762   2.762   2.762   2.762   2.762   2.762   2.762   2.762
    95.29    2.762   2.762   2.762   2.762   2.762   2.762   2.762   2.762   2.762   2.762   2.762   2.762   2.762   2.762   2.762   2.762   2.762   2.762   2.762   2.762   2.762   2.762   2.762   2.762   2.762   2.762   2.762   2.762   2.762   2.762   2.762   2.762   2.762   2.762   2.762   2.762
    86.71    2.762   2.762   2.762   2.762   2.762   2.762   2.762   2.762   2.762   2.762   2.762   2.762   2.762   2.762   2.762   2.762   2.762   2.762   2.762   2.762   2.762   2.762   2.762   2.762   2.762   2.762   2.762   2.762   2.762   2.762   2.762   2.762   2.762   2.762   2.762   2.762
    78.14    2.762   2.762   2.762   2.762   2.762   2.762   2.762   2.762   2.762   2.762   2.762   2.762   2.762   2.762   2.762   2.762   2.762   2.762   2.762   2.762   2.762   2.762   2.762   2.762   2.762   2.762   2.762   2.762   2.762   2.762   2.762   2.762   2.762   2.762   2.762   2.762
    69.57    2.762   2.762   2.762   2.762   2.762   2.762   2.762   2.762   2.762   2.762   2.762   2.762   2.762   2.762   2.762   2.762   2.762   2.762   2.762   2.762   2.762   2.762   2.762   2.762   2.762   2.762   2.762   2.762   2.762   2.762   2.762   2.762   2.762   2.762   2.762   2.762
    61.00    2.762   2.762   2.762   2.762   2.762   2.762   2.762   2.762   2.762   2.762   2.762   2.762   2.762   2.762   2.762   2.762   2.762   2.762   2.762   2.762   2.762   2.762   2.762   2.762   2.762   2.762   2.762   2.762   2.762   2.762   2.762   2.762   2.762   2.762   2.762   2.762
    52.43    2.762   2.762   2.762   2.762   2.762   2.762   2.762   2.762   2.762   2.762   2.762   2.762   2.762   2.762   2.762   2.762   2.762   2.762   2.762   2.762   2.762   2.762   2.762   2.762   2.762   2.762   2.762   2.762   2.762   2.762   2.762   2.762   2.762   2.762   2.762   2.762
    43.86    2.762   2.762   2.762   2.762   2.762   2.762   2.762   2.762   2.762   2.762   2.762   2.762   2.762   2.762   2.762   2.762   2.762   2.762   2.762   2.762   2.762   2.762   2.762   2.762   2.762   2.762   2.762   2.762   2.762   2.762   2.762   2.762   2.762   2.762   2.762   2.762
    35.29    2.762   2.762   2.762   2.762   2.762   2.762   2.762   2.762   2.762   2.762   2.762   2.762   2.762   2.762   2.762   2.762   2.762   2.762   2.762   2.762   2.762   2.762   2.762   2.762   2.762   2.762   2.762   2.762   2.762   2.762   2.762   2.762   2.762   2.762   2.762   2.762
    26.71    2.762   2.762   2.762   2.762   2.762   2.762   2.762   2.762   2.762   2.762   2.762   2.762   2.762   2.762   2.762   2.762   2.762   2.762   2.762   2.762   2.762   2.762   2.762   2.762   2.762   2.762   2.762   2.762   2.762   2.762   2.762   2.762   2.762   2.762   2.762   2.762
    18.14    2.762   2.762   2.762   2.762   2.762   2.762   2.762   2.762   2.762   2.762   2.762   2.762   2.762   2.762   2.762   2.762   2.762   2.762   2.762   2.762   2.762   2.762   2.762   2.762   2.762   2.762   2.762   2.762   2.762   2.762   2.762   2.762   2.762   2.762   2.762   2.762
     9.57    2.762   2.762   2.762   2.762   2.762   2.762   2.762   2.762   2.762   2.762   2.762   2.762   2.762   2.762   2.762   2.762   2.762   2.762   2.762   2.762   2.762   2.762   2.762   2.762   2.762   2.762   2.762   2.762   2.762   2.762   2.762   2.762   2.762   2.762   2.762   2.762
     1.00    2.762   2.762   2.762   2.762   2.762   2.762   2.762   2.762   2.762   2.762   2.762   2.762   2.762   2.762   2.762   2.762   2.762   2.762   2.762   2.762   2.762   2.762   2.762   2.762   2.762   2.762   2.762   2.762   2.762   2.762   2.762   2.762   2.762   2.762   2.762   2.762

   Height   Standard deviation at grid points for the w component:
   301.00    2.762   2.762   2.762   2.762   2.762   2.762   2.762   2.762   2.762   2.762   2.762   2.762   2.762   2.762   2.762   2.762   2.762   2.762   2.762   2.762   2.762   2.762   2.762   2.762   2.762   2.762   2.762   2.762   2.762   2.762   2.762   2.762   2.762   2.762   2.762   2.762
   292.43    2.762   2.762   2.762   2.762   2.762   2.762   2.762   2.762   2.762   2.762   2.762   2.762   2.762   2.762   2.762   2.762   2.762   2.762   2.762   2.762   2.762   2.762   2.762   2.762   2.762   2.762   2.762   2.762   2.762   2.762   2.762   2.762   2.762   2.762   2.762   2.762
   283.86    2.762   2.762   2.762   2.762   2.762   2.762   2.762   2.762   2.762   2.762   2.762   2.762   2.762   2.762   2.762   2.762   2.762   2.762   2.762   2.762   2.762   2.762   2.762   2.762   2.762   2.762   2.762   2.762   2.762   2.762   2.762   2.762   2.762   2.762   2.762   2.762
   275.29    2.762   2.762   2.762   2.762   2.762   2.762   2.762   2.762   2.762   2.762   2.762   2.762   2.762   2.762   2.762   2.762   2.762   2.762   2.762   2.762   2.762   2.762   2.762   2.762   2.762   2.762   2.762   2.762   2.762   2.762   2.762   2.762   2.762   2.762   2.762   2.762
   266.71    2.762   2.762   2.762   2.762   2.762   2.762   2.762   2.762   2.762   2.762   2.762   2.762   2.762   2.762   2.762   2.762   2.762   2.762   2.762   2.762   2.762   2.762   2.762   2.762   2.762   2.762   2.762   2.762   2.762   2.762   2.762   2.762   2.762   2.762   2.762   2.762
   258.14    2.762   2.762   2.762   2.762   2.762   2.762   2.762   2.762   2.762   2.762   2.762   2.762   2.762   2.762   2.762   2.762   2.762   2.762   2.762   2.762   2.762   2.762   2.762   2.762   2.762   2.762   2.762   2.762   2.762   2.762   2.762   2.762   2.762   2.762   2.762   2.762
   249.57    2.762   2.762   2.762   2.762   2.762   2.762   2.762   2.762   2.762   2.762   2.762   2.762   2.762   2.762   2.762   2.762   2.762   2.762   2.762   2.762   2.762   2.762   2.762   2.762   2.762   2.762   2.762   2.762   2.762   2.762   2.762   2.762   2.762   2.762   2.762   2.762
   241.00    2.762   2.762   2.762   2.762   2.762   2.762   2.762   2.762   2.762   2.762   2.762   2.762   2.762   2.762   2.762   2.762   2.762   2.762   2.762   2.762   2.762   2.762   2.762   2.762   2.762   2.762   2.762   2.762   2.762   2.762   2.762   2.762   2.762   2.762   2.762   2.762
   232.43    2.762   2.762   2.762   2.762   2.762   2.762   2.762   2.762   2.762   2.762   2.762   2.762   2.762   2.762   2.762   2.762   2.762   2.762   2.762   2.762   2.762   2.762   2.762   2.762   2.762   2.762   2.762   2.762   2.762   2.762   2.762   2.762   2.762   2.762   2.762   2.762
   223.86    2.762   2.762   2.762   2.762   2.762   2.762   2.762   2.762   2.762   2.762   2.762   2.762   2.762   2.762   2.762   2.762   2.762   2.762   2.762   2.762   2.762   2.762   2.762   2.762   2.762   2.762   2.762   2.762   2.762   2.762   2.762   2.762   2.762   2.762   2.762   2.762
   215.29    2.762   2.762   2.762   2.762   2.762   2.762   2.762   2.762   2.762   2.762   2.762   2.762   2.762   2.762   2.762   2.762   2.762   2.762   2.762   2.762   2.762   2.762   2.762   2.762   2.762   2.762   2.762   2.762   2.762   2.762   2.762   2.762   2.762   2.762   2.762   2.762
   206.71    2.762   2.762   2.762   2.762   2.762   2.762   2.762   2.762   2.762   2.762   2.762   2.762   2.762   2.762   2.762   2.762   2.762   2.762   2.762   2.762   2.762   2.762   2.762   2.762   2.762   2.762   2.762   2.762   2.762   2.762   2.762   2.762   2.762   2.762   2.762   2.762
   198.14    2.762   2.762   2.762   2.762   2.762   2.762   2.762   2.762   2.762   2.762   2.762   2.762   2.762   2.762   2.762   2.762   2.762   2.762   2.762   2.762   2.762   2.762   2.762   2.762   2.762   2.762   2.762   2.762   2.762   2.762   2.762   2.762   2.762   2.762   2.762   2.762
   189.57    2.762   2.762   2.762   2.762   2.762   2.762   2.762   2.762   2.762   2.762   2.762   2.762   2.762   2.762   2.762   2.762   2.762   2.762   2.762   2.762   2.762   2.762   2.762   2.762   2.762   2.762   2.762   2.762   2.762   2.762   2.762   2.762   2.762   2.762   2.762   2.762
   181.00    2.762   2.762   2.762   2.762   2.762   2.762   2.762   2.762   2.762   2.762   2.762   2.762   2.762   2.762   2.762   2.762   2.762   2.762   2.762   2.762   2.762   2.762   2.762   2.762   2.762   2.762   2.762   2.762   2.762   2.762   2.762   2.762   2.762   2.762   2.762   2.762
   172.43    2.762   2.762   2.762   2.762   2.762   2.762   2.762   2.762   2.762   2.762   2.762   2.762   2.762   2.762   2.762   2.762   2.762   2.762   2.762   2.762   2.762   2.762   2.762   2.762   2.762   2.762   2.762   2.762   2.762   2.762   2.762   2.762   2.762   2.762   2.762   2.762
   163.86    2.762   2.762   2.762   2.762   2.762   2.762   2.762   2.762   2.762   2.762   2.762   2.762   2.762   2.762   2.762   2.762   2.762   2.762   2.762   2.762   2.762   2.762   2.762   2.762   2.762   2.762   2.762   2.762   2.762   2.762   2.762   2.762   2.762   2.762   2.762   2.762
   155.29    2.762   2.762   2.762   2.762   2.762   2.762   2.762   2.762   2.762   2.762   2.762   2.762   2.762   2.762   2.762   2.762   2.762   2.762   2.762   2.762   2.762   2.762   2.762   2.762   2.762   2.762   2.762   2.762   2.762   2.762   2.762   2.762   2.762   2.762   2.762   2.762
   146.71    2.762   2.762   2.762   2.762   2.762   2.762   2.762   2.762   2.762   2.762   2.762   2.762   2.762   2.762   2.762   2.762   2.762   2.762   2.762   2.762   2.762   2.762   2.762   2.762   2.762   2.762   2.762   2.762   2.762   2.762   2.762   2.762   2.762   2.762   2.762   2.762
   138.14    2.762   2.762   2.762   2.762   2.762   2.762   2.762   2.762   2.762   2.762   2.762   2.762   2.762   2.762   2.762   2.762   2.762   2.762   2.762   2.762   2.762   2.762   2.762   2.762   2.762   2.762   2.762   2.762   2.762   2.762   2.762   2.762   2.762   2.762   2.762   2.762
   129.57    2.762   2.762   2.762   2.762   2.762   2.762   2.762   2.762   2.762   2.762   2.762   2.762   2.762   2.762   2.762   2.762   2.762   2.762   2.762   2.762   2.762   2.762   2.762   2.762   2.762   2.762   2.762   2.762   2.762   2.762   2.762   2.762   2.762   2.762   2.762   2.762
   121.00    2.762   2.762   2.762   2.762   2.762   2.762   2.762   2.762   2.762   2.762   2.762   2.762   2.762   2.762   2.762   2.762   2.762   2.762   2.762   2.762   2.762   2.762   2.762   2.762   2.762   2.762   2.762   2.762   2.762   2.762   2.762   2.762   2.762   2.762   2.762   2.762
   112.43    2.762   2.762   2.762   2.762   2.762   2.762   2.762   2.762   2.762   2.762   2.762   2.762   2.762   2.762   2.762   2.762   2.762   2.762   2.762   2.762   2.762   2.762   2.762   2.762   2.762   2.762   2.762   2.762   2.762   2.762   2.762   2.762   2.762   2.762   2.762   2.762
   103.86    2.762   2.762   2.762   2.762   2.762   2.762   2.762   2.762   2.762   2.762   2.762   2.762   2.762   2.762   2.762   2.762   2.762   2.762   2.762   2.762   2.762   2.762   2.762   2.762   2.762   2.762   2.762   2.762   2.762   2.762   2.762   2.762   2.762   2.762   2.762   2.762
    95.29    2.762   2.762   2.762   2.762   2.762   2.762   2.762   2.762   2.762   2.762   2.762   2.762   2.762   2.762   2.762   2.762   2.762   2.762   2.762   2.762   2.762   2.762   2.762   2.762   2.762   2.762   2.762   2.762   2.762   2.762   2.762   2.762   2.762   2.762   2.762   2.762
    86.71    2.762   2.762   2.762   2.762   2.762   2.762   2.762   2.762   2.762   2.762   2.762   2.762   2.762   2.762   2.762   2.762   2.762   2.762   2.762   2.762   2.762   2.762   2.762   2.762   2.762   2.762   2.762   2.762   2.762   2.762   2.762   2.762   2.762   2.762   2.762   2.762
    78.14    2.762   2.762   2.762   2.762   2.762   2.762   2.762   2.762   2.762   2.762   2.762   2.762   2.762   2.762   2.762   2.762   2.762   2.762   2.762   2.762   2.762   2.762   2.762   2.762   2.762   2.762   2.762   2.762   2.762   2.762   2.762   2.762   2.762   2.762   2.762   2.762
    69.57    2.762   2.762   2.762   2.762   2.762   2.762   2.762   2.762   2.762   2.762   2.762   2.762   2.762   2.762   2.762   2.762   2.762   2.762   2.762   2.762   2.762   2.762   2.762   2.762   2.762   2.762   2.762   2.762   2.762   2.762   2.762   2.762   2.762   2.762   2.762   2.762
    61.00    2.762   2.762   2.762   2.762   2.762   2.762   2.762   2.762   2.762   2.762   2.762   2.762   2.762   2.762   2.762   2.762   2.762   2.762   2.762   2.762   2.762   2.762   2.762   2.762   2.762   2.762   2.762   2.762   2.762   2.762   2.762   2.762   2.762   2.762   2.762   2.762
    52.43    2.762   2.762   2.762   2.762   2.762   2.762   2.762   2.762   2.762   2.762   2.762   2.762   2.762   2.762   2.762   2.762   2.762   2.762   2.762   2.762   2.762   2.762   2.762   2.762   2.762   2.762   2.762   2.762   2.762   2.762   2.762   2.762   2.762   2.762   2.762   2.762
    43.86    2.762   2.762   2.762   2.762   2.762   2.762   2.762   2.762   2.762   2.762   2.762   2.762   2.762   2.762   2.762   2.762   2.762   2.762   2.762   2.762   2.762   2.762   2.762   2.762   2.762   2.762   2.762   2.762   2.762   2.762   2.762   2.762   2.762   2.762   2.762   2.762
    35.29    2.762   2.762   2.762   2.762   2.762   2.762   2.762   2.762   2.762   2.762   2.762   2.762   2.762   2.762   2.762   2.762   2.762   2.762   2.762   2.762   2.762   2.762   2.762   2.762   2.762   2.762   2.762   2.762   2.762   2.762   2.762   2.762   2.762   2.762   2.762   2.762
    26.71    2.762   2.762   2.762   2.762   2.762   2.762   2.762   2.762   2.762   2.762   2.762   2.762   2.762   2.762   2.762   2.762   2.762   2.762   2.762   2.762   2.762   2.762   2.762   2.762   2.762   2.762   2.762   2.762   2.762   2.762   2.762   2.762   2.762   2.762   2.762   2.762
    18.14    2.762   2.762   2.762   2.762   2.762   2.762   2.762   2.762   2.762   2.762   2.762   2.762   2.762   2.762   2.762   2.762   2.762   2.762   2.762   2.762   2.762   2.762   2.762   2.762   2.762   2.762   2.762   2.762   2.762   2.762   2.762   2.762   2.762   2.762   2.762   2.762
     9.57    2.762   2.762   2.762   2.762   2.762   2.762   2.762   2.762   2.762   2.762   2.762   2.762   2.762   2.762   2.762   2.762   2.762   2.762   2.762   2.762   2.762   2.762   2.762   2.762   2.762   2.762   2.762   2.762   2.762   2.762   2.762   2.762   2.762   2.762   2.762   2.762
     1.00    2.762   2.762   2.762   2.762   2.762   2.762   2.762   2.762   2.762   2.762   2.762   2.762   2.762   2.762   2.762   2.762   2.762   2.762   2.762   2.762   2.762   2.762   2.762   2.762   2.762   2.762   2.762   2.762   2.762   2.762   2.762   2.762   2.762   2.762   2.762   2.762

   Mean standard deviation across all grid points:
      u component:    2.786 m/s
      v component:    2.762 m/s
      w component:    2.762 m/s


U-component (X) statistics from the interpolated hub point:

   Mean =  15.9569 m/s
   TI   =  15.4084 %


Normalizing Parameters for Binary Data (approximate statistics):

   UBar  =  15.9579 m/s
   TI(u) =  17.6831 %
   TI(v) =  17.3062 %
   TI(w) =  17.3062 %

   Height Offset =   0.0000 m
   Grid Base     =   1.0000 m

Creating a PERIODIC output file.


Processing complete.  115.91 CPU seconds used.
