
This summary file was generated by TurbSim (v2.00.07a-bjj, 14-Jun-2016) on 03-Nov-2023 at 03:21:07.


Runtime Options:

      2201  Random seed #1
    RANLUX  Type of random number generator
         F  Output binary HH turbulence parameters?
         F  Output formatted turbulence parameters?
         F  Output AeroDyn HH files?
         F  Output AeroDyn FF files?
         T  Output BLADED FF files?
         F  Output tower data?
         F  Output formatted FF files?
         F  Output coherent turbulence time step file?
         T  Clockwise rotation when looking downwind?
 0 -  NONE  IEC turbulence models scaled to exact specified standard deviation


Turbine/Model Specifications:

        36  Vertical grid-point matrix dimension
        36  Horizontal grid-point matrix dimension
     0.100  Time step [seconds]
   660.000  Analysis time [seconds]
   660.000  Usable output time [seconds]
   151.000  Hub height [m]
   300.000  Grid height [m]
   300.000  Grid width [m]
     0.000  Vertical flow angle [degrees]
     0.000  Horizontal flow angle [degrees]


Meteorological Boundary Conditions:

    IECVKM  IEC von Karman spectral model
         1  IEC standard: IEC 61400-1 Ed. 3: 2005
         A  IEC turbulence characteristic
       NTM  IEC Normal Turbulence Model
       N/A  IEC Extreme Turbulence Model (ETM) "c" parameter [m/s]
       PL   Wind profile type
   153.000  Reference height [m]
    12.000  Reference wind speed [m/s]
       N/A  Jet height [m]
     0.200  Power law exponent
     0.030  Surface roughness length [m]


Non-IEC Meteorological Boundary Conditions:

       N/A  Site latitude [degrees]
       N/A  Gradient Richardson number
       N/A  Friction or shear velocity [m/s]
       N/A  Mixing layer depth [m]
       N/A  Mean hub u'w' Reynolds stress
       N/A  Mean hub u'v' Reynolds stress
       N/A  Mean hub v'w' Reynolds stress


Spatial Coherence Models:

       IEC  u-component coherence model
      NONE  v-component coherence model
      NONE  w-component coherence model
(   12.000, 0.353E-03)  u-component coherence parameters
                   N/A  v-component coherence parameters
                   N/A  w-component coherence parameters
       N/A  Coherence exponent


You have requested that the following file(s) be generated:

   G:\2023\OpenWECDV1.0.0_x64\BaseLIne\wind\WindL_V_12_seed_2201.wnd (AeroDyn/BLADED full-field wnd file)


Turbulence Simulation Scaling Parameter Summary:

   Turbulence model used                            =  IEC von Karman
   Turbulence characteristic                        =  A
   IEC turbulence type                              =  Normal Turbulence Model
   IEC standard                                     =  IEC 61400-1 Ed. 3: 2005
   Mean wind speed at hub height                    =   11.968 m/s
   Expected value of turbulence intensity at 15 m/s =   16.000%
   Characteristic value of standard deviation       =    2.332 m/s
   Turbulence scale                                 =   42.000 m
   Isotropic integral scale                         =  147.000 m
   Characteristic value of hub turbulence intensity =   19.486%
   Gradient Richardson number                       =    0.000

   Wind profile type                                =  Power law
   Power law exponent                               =    0.200
   Mean shear across rotor disk                     =    0.031 (m/s)/m
   Assumed rotor diameter                           =  300.000 m
   Surface roughness length                         =    0.030 m

   Nyquist frequency of turbulent wind field        =    5.000 Hz

   Number of time steps in the FFT                  =     6600
   Number of time steps output                      =     6600
   Number of points simulated                       =     1297


Mean Flow Angles:

   Vertical   =   0.0 degrees
   Horizontal =   0.0 degrees

Mean Wind Speed Profile:

   Height    Wind Speed   Horizontal Angle  Vertical Angle  U-comp (X)   V-comp (Y)   W-comp (Z)
     (m)        (m/s)         (degrees)       (degrees)       (m/s)        (m/s)        (m/s)   
   ------    ----------   ----------------  --------------  ----------   ----------   ----------
    301.0       13.74            0.00            0.00         13.74         0.00         0.00
    292.4       13.66            0.00            0.00         13.66         0.00         0.00
    283.9       13.58            0.00            0.00         13.58         0.00         0.00
    275.3       13.50            0.00            0.00         13.50         0.00         0.00
    266.7       13.41            0.00            0.00         13.41         0.00         0.00
    258.1       13.32            0.00            0.00         13.32         0.00         0.00
    249.6       13.23            0.00            0.00         13.23         0.00         0.00
    241.0       13.14            0.00            0.00         13.14         0.00         0.00
    232.4       13.05            0.00            0.00         13.05         0.00         0.00
    223.9       12.95            0.00            0.00         12.95         0.00         0.00
    215.3       12.85            0.00            0.00         12.85         0.00         0.00
    206.7       12.74            0.00            0.00         12.74         0.00         0.00
    198.1       12.64            0.00            0.00         12.64         0.00         0.00
    189.6       12.53            0.00            0.00         12.53         0.00         0.00
    181.0       12.41            0.00            0.00         12.41         0.00         0.00
    172.4       12.29            0.00            0.00         12.29         0.00         0.00
    163.9       12.17            0.00            0.00         12.17         0.00         0.00
    155.3       12.04            0.00            0.00         12.04         0.00         0.00
    151.0       11.97            0.00            0.00         11.97         0.00         0.00
    146.7       11.90            0.00            0.00         11.90         0.00         0.00
    138.1       11.76            0.00            0.00         11.76         0.00         0.00
    129.6       11.61            0.00            0.00         11.61         0.00         0.00
    121.0       11.45            0.00            0.00         11.45         0.00         0.00
    112.4       11.28            0.00            0.00         11.28         0.00         0.00
    103.9       11.11            0.00            0.00         11.11         0.00         0.00
     95.3       10.92            0.00            0.00         10.92         0.00         0.00
     86.7       10.71            0.00            0.00         10.71         0.00         0.00
     78.1       10.49            0.00            0.00         10.49         0.00         0.00
     69.6       10.25            0.00            0.00         10.25         0.00         0.00
     61.0        9.98            0.00            0.00          9.98         0.00         0.00
     52.4        9.69            0.00            0.00          9.69         0.00         0.00
     43.9        9.35            0.00            0.00          9.35         0.00         0.00
     35.3        8.95            0.00            0.00          8.95         0.00         0.00
     26.7        8.46            0.00            0.00          8.46         0.00         0.00
     18.1        7.83            0.00            0.00          7.83         0.00         0.00
      9.6        6.89            0.00            0.00          6.89         0.00         0.00
      1.0        4.39            0.00            0.00          4.39         0.00         0.00


Harvested Random Seeds after Generation of the Random Numbers:

    119307688 K 1
            0 K 2


Hub-Height Simulated Turbulence Statistical Summary:

   Type of Wind        Min (m/s)   Mean (m/s)    Max (m/s)  Sigma (m/s)       TI (%)
   ----------------    ---------   ----------    ---------  -----------       ------
   Longitudinal (u)         5.06        11.97        17.95        2.322       19.402
   Lateral (v)             -6.13         0.00         7.25        2.290       19.130
   Vertical (w)            -6.17         0.00         7.20        2.290       19.130
   U component              5.06        11.97        17.95        2.322       19.402
   V component             -6.13         0.00         7.25        2.290       19.130
   W component             -6.17         0.00         7.20        2.290       19.130
   Horizontal (U&V)         5.10        12.19        18.28        2.306       18.919
   Total                    5.40        12.41        18.57        2.262       18.230

                       Min Reynolds     Mean Reynolds    Max Reynolds    Correlation
   Product             Stress (m/s)^2   Stress (m/s)^2   Stress (m/s)^2  Coefficient
   ----------------    --------------   --------------   --------------  -----------
   u'w'                    -27.763             0.058            24.985         0.011
   u'v'                    -23.832            -0.162            27.508        -0.031
   v'w'                    -27.455            -0.781            25.476        -0.149


   Friction Velocity (Ustar)  =      0.242 m/s
   Maximum Instantaneous TKE  =     35.448 (m/s)^2
   Maximum Instantaneous CTKE =     20.160 (m/s)^2


Grid Point Variance Summary:

   Y-coord -150.00 -141.43 -132.86 -124.29 -115.71 -107.14  -98.57  -90.00  -81.43  -72.86  -64.29  -55.71  -47.14  -38.57  -30.00  -21.43  -12.86   -4.29    4.29   12.86   21.43   30.00   38.57   47.14   55.71   64.29   72.86   81.43   90.00   98.57  107.14  115.71  124.29  132.86  141.43  150.00

   Height   Standard deviation at grid points for the u component:
   301.00    2.076   2.079   2.078   2.127   2.080   1.903   2.015   2.125   1.986   1.874   1.918   1.987   2.166   2.415   2.282   2.073   2.037   2.108   2.131   2.166   2.128   2.220   2.282   2.204   2.080   2.082   2.122   2.271   2.388   2.127   2.067   2.103   2.180   2.263   2.260   2.337
   292.43    2.023   2.018   2.090   2.001   1.900   2.029   2.072   2.060   1.988   1.996   1.997   2.093   2.185   2.361   2.147   2.184   2.133   2.091   1.908   2.195   2.378   2.354   2.315   2.243   2.212   2.253   2.157   2.320   2.391   2.243   2.101   2.185   2.321   2.297   2.281   2.252
   283.86    2.009   1.919   1.970   1.964   1.895   1.988   2.040   2.175   2.320   2.139   2.059   2.134   2.260   2.394   2.368   2.188   1.999   2.006   1.975   2.210   2.183   2.237   2.376   2.224   2.453   2.437   2.358   2.443   2.240   2.171   2.137   2.227   2.262   2.308   2.264   2.198
   275.29    2.102   1.981   1.867   1.809   1.881   1.920   1.976   2.139   2.385   2.254   2.411   2.434   2.373   2.410   2.286   2.257   2.029   2.050   2.168   2.194   2.170   2.226   2.359   2.434   2.324   2.412   2.484   2.344   2.244   2.191   2.225   2.154   2.251   2.291   2.124   2.165
   266.71    2.072   1.962   1.716   1.897   1.885   1.756   1.924   2.027   2.268   2.171   2.307   2.279   2.283   2.276   2.324   2.393   2.258   2.278   2.214   2.128   2.219   2.138   2.236   2.325   2.305   2.311   2.164   2.249   2.213   2.156   2.082   2.156   2.272   2.121   2.224   2.154
   258.14    2.020   2.057   1.767   1.868   1.849   1.939   1.852   2.002   2.148   2.239   2.197   2.301   2.314   2.316   2.257   2.384   2.378   2.265   2.286   2.177   2.050   2.140   2.308   2.210   2.207   2.243   2.206   2.116   2.320   2.358   2.128   2.139   2.169   2.240   2.240   2.205
   249.57    2.024   1.948   1.928   1.864   1.881   1.862   1.863   1.990   2.034   1.993   2.325   2.360   2.386   2.214   2.209   2.230   2.344   2.506   2.606   2.394   2.231   2.229   2.319   2.125   1.995   2.039   2.131   2.318   2.324   2.368   2.222   2.134   2.110   2.203   2.248   2.210
   241.00    1.872   2.016   1.918   1.866   1.958   1.886   1.869   1.958   1.951   2.057   2.294   2.371   2.360   2.097   2.149   2.335   2.388   2.497   2.447   2.543   2.516   2.302   2.262   2.145   2.128   2.147   2.163   2.309   2.194   2.342   2.253   2.276   2.143   2.141   2.141   2.227
   232.43    1.902   1.979   1.977   1.903   1.805   1.997   2.008   1.958   2.165   2.365   2.279   2.237   2.358   2.171   2.050   2.284   2.454   2.329   2.256   2.340   2.389   2.344   2.201   2.162   2.097   2.280   2.147   2.133   2.255   2.241   2.404   2.317   2.112   2.110   2.035   1.989
   223.86    1.998   1.991   2.050   1.902   1.792   1.983   2.057   2.092   2.219   2.287   2.334   2.307   2.392   2.163   1.937   2.158   2.141   2.160   2.159   2.219   2.235   2.211   2.110   2.121   2.033   2.258   2.134   2.101   2.144   2.263   2.277   2.158   2.033   1.971   1.961   2.054
   215.29    1.867   1.926   2.104   2.041   1.918   2.053   2.171   2.183   2.236   2.394   2.200   2.328   2.337   2.137   2.133   2.190   2.194   2.092   2.324   2.261   2.194   2.076   2.142   2.180   2.085   2.221   2.065   2.150   2.221   2.214   2.170   1.993   1.923   1.904   1.967   1.947
   206.71    2.003   1.982   2.054   2.026   2.013   1.996   2.084   2.195   2.182   2.237   2.259   2.270   2.262   2.229   2.307   2.207   2.144   2.156   2.252   2.354   2.226   2.126   1.947   2.030   2.029   2.098   2.020   2.222   2.167   2.031   1.920   1.970   1.879   1.738   1.774   1.928
   198.14    2.179   1.896   1.924   1.997   1.947   2.055   2.076   2.059   2.164   2.241   2.145   2.138   2.059   2.027   2.278   2.270   2.244   2.327   2.345   2.283   2.245   2.179   2.092   1.993   2.015   2.083   2.004   2.068   2.029   1.985   1.902   1.956   1.831   1.819   1.800   1.869
   189.57    2.176   2.064   2.025   2.047   2.095   1.980   1.947   1.951   2.053   2.083   1.978   1.943   2.015   2.149   2.420   2.336   2.333   2.369   2.386   2.282   2.209   2.083   2.023   1.975   2.043   2.126   2.053   1.910   1.882   1.992   1.974   1.996   1.932   1.929   1.883   1.890
   181.00    2.174   2.031   2.128   2.087   1.947   1.852   1.854   1.998   2.045   1.983   2.023   1.994   2.064   2.319   2.304   2.197   2.339   2.429   2.289   2.164   2.252   2.170   2.097   2.115   2.023   2.090   2.069   1.890   1.882   1.884   1.996   2.093   1.944   2.064   1.983   2.128
   172.43    2.334   2.183   2.100   2.031   2.022   1.962   1.947   1.988   1.985   1.905   1.901   1.953   2.028   2.150   2.272   2.333   2.337   2.593   2.500   2.346   2.166   2.169   2.132   2.056   2.044   1.960   1.914   1.847   1.824   1.881   2.044   2.175   2.079   2.155   2.077   2.195
   163.86    2.292   2.151   1.978   2.009   2.093   1.995   1.865   1.809   1.828   1.806   1.957   1.988   1.983   2.171   2.183   2.353   2.433   2.587   2.543   2.336   2.473   2.211   2.033   2.029   2.152   1.939   1.901   1.851   1.868   1.831   2.031   1.990   2.133   1.952   2.087   2.131
   155.29    2.236   2.081   2.092   2.074   2.043   1.940   1.805   1.792   1.862   1.945   1.849   1.894   2.005   2.115   2.065   2.194   2.226   2.253   2.367   2.310   2.357   2.300   2.133   2.102   1.915   1.953   1.948   2.067   2.046   2.078   1.982   1.999   2.068   1.993   2.003   2.184
   146.71    2.232   2.057   2.091   2.133   1.969   1.868   1.845   1.700   1.691   1.899   1.885   1.928   2.052   2.091   1.962   2.055   2.127   2.167   2.226   2.246   2.183   2.271   2.116   1.921   1.900   1.994   2.111   2.093   2.019   1.943   1.961   1.974   1.974   2.006   2.066   1.993
   138.14    2.326   2.136   2.055   2.069   1.903   1.939   1.965   1.799   1.968   1.914   1.800   1.859   2.082   1.914   1.946   2.019   2.109   2.097   2.113   2.228   2.142   2.190   2.054   2.058   1.893   1.940   2.011   2.034   1.937   1.884   1.918   2.062   2.021   2.036   2.023   2.138
   129.57    2.450   2.210   1.965   2.036   2.064   1.957   1.836   1.835   1.935   2.036   1.991   1.871   2.045   2.095   1.988   1.908   2.069   1.982   2.035   2.292   2.200   2.095   1.926   2.016   1.918   2.006   2.096   2.083   1.923   1.969   2.046   2.031   1.897   2.243   2.221   2.213
   121.00    2.276   2.153   2.074   1.993   1.987   1.942   1.967   2.021   2.041   2.094   1.988   2.024   1.994   2.100   2.020   2.093   2.076   1.931   2.012   2.157   2.208   2.099   2.127   2.151   2.124   2.111   2.147   2.009   2.048   2.159   2.132   1.999   1.996   2.202   2.204   2.177
   112.43    2.167   2.127   1.970   2.023   1.970   2.031   2.033   2.151   2.101   2.097   2.134   2.098   2.122   2.088   2.065   2.060   2.100   1.951   1.958   2.031   2.063   2.209   2.185   2.184   2.086   2.085   2.048   2.153   2.004   2.157   2.057   2.013   2.123   2.198   2.146   2.117
   103.86    2.164   2.031   2.008   1.992   1.989   2.051   2.104   2.094   2.139   2.131   2.120   2.190   2.237   2.097   1.955   2.057   2.036   1.833   1.907   2.079   2.036   2.169   2.181   2.249   2.170   2.204   1.948   2.012   2.014   2.028   2.133   2.052   2.176   2.239   2.094   2.175
    95.29    2.101   2.102   2.092   2.091   2.066   1.911   2.002   1.979   2.129   2.153   2.206   2.241   2.304   2.291   2.140   2.158   2.088   1.927   1.880   1.977   2.175   2.170   2.219   2.067   2.131   2.225   2.084   1.922   1.926   1.987   1.920   2.101   2.262   2.134   2.212   2.217
    86.71    2.120   2.082   2.046   2.081   1.911   1.871   1.825   2.032   2.178   2.242   2.263   2.503   2.354   2.201   2.200   2.098   2.046   2.010   1.884   2.060   2.093   2.188   2.289   2.199   2.406   2.137   2.242   2.072   1.964   2.063   2.047   2.245   2.278   2.172   2.052   2.098
    78.14    2.117   2.167   2.074   1.945   1.895   1.879   1.775   2.117   2.183   2.117   2.365   2.585   2.479   2.246   2.264   2.174   1.997   2.066   1.912   2.029   2.011   2.091   2.032   2.103   2.231   2.045   2.229   2.080   2.074   2.051   2.023   2.170   2.137   2.018   2.129   2.027
    69.57    1.999   2.114   2.025   1.950   1.895   1.911   1.952   2.043   2.086   2.257   2.467   2.475   2.334   2.232   2.136   2.168   2.189   2.022   2.174   2.074   2.082   2.187   2.182   2.221   2.119   2.106   2.253   2.074   2.021   1.989   1.862   2.097   2.258   2.147   2.117   2.191
    61.00    2.054   2.106   2.046   1.904   1.836   2.001   2.091   2.141   2.164   2.079   2.362   2.422   2.291   2.250   2.172   2.212   2.109   2.140   2.186   2.113   2.215   2.265   2.190   2.197   2.122   2.192   2.137   2.193   1.961   2.048   2.031   2.057   2.186   2.151   2.068   2.147
    52.43    1.992   2.018   1.952   1.976   2.002   2.007   2.006   2.064   2.128   2.147   2.397   2.463   2.248   2.135   2.148   2.177   2.085   2.145   2.129   2.286   2.238   2.204   2.152   2.214   2.245   2.157   2.074   2.140   2.049   1.918   2.011   2.198   2.088   2.211   2.195   2.191
    43.86    2.091   1.827   1.944   1.911   1.928   2.121   2.094   2.178   2.269   2.244   2.314   2.401   2.321   2.158   2.053   2.148   2.232   2.232   2.210   2.382   2.328   2.229   2.130   2.165   2.183   2.257   2.339   2.306   2.192   2.086   2.292   2.111   2.239   2.279   2.254   2.135
    35.29    2.072   1.942   1.927   2.064   1.973   2.106   2.143   2.230   2.340   2.298   2.361   2.334   2.253   2.233   2.061   2.070   2.078   2.320   2.348   2.342   2.327   2.457   2.435   2.201   2.224   2.379   2.473   2.404   2.287   2.268   2.198   2.237   2.290   2.282   2.240   2.210
    26.71    2.194   1.936   2.050   2.009   1.945   2.063   2.314   2.341   2.226   2.297   2.441   2.406   2.316   2.274   2.228   2.268   2.181   2.244   2.417   2.501   2.388   2.410   2.352   2.342   2.415   2.484   2.499   2.554   2.253   2.300   2.013   2.049   2.168   2.230   2.213   2.039
    18.14    2.181   2.034   2.013   2.084   2.142   2.092   2.323   2.214   2.151   2.297   2.471   2.317   2.393   2.324   2.477   2.362   2.280   2.396   2.440   2.510   2.593   2.337   2.447   2.390   2.408   2.506   2.442   2.460   2.314   2.142   2.074   2.000   2.175   2.195   2.168   1.992
     9.57    2.263   2.157   2.190   2.264   2.215   2.262   2.311   2.221   2.261   2.414   2.396   2.336   2.286   2.297   2.276   2.304   2.353   2.300   2.516   2.427   2.480   2.357   2.360   2.321   2.343   2.215   2.333   2.307   2.174   2.151   2.138   2.029   2.070   2.105   2.168   2.089
     1.00    2.273   2.194   2.147   2.129   2.239   2.241   2.319   2.391   2.508   2.593   2.565   2.439   2.372   2.408   2.270   2.422   2.345   2.096   2.227   2.459   2.399   2.276   2.172   2.091   2.184   2.070   2.285   2.135   1.972   2.007   2.194   2.234   2.021   2.055   2.104   2.010

   Height   Standard deviation at grid points for the v component:
   301.00    2.290   2.290   2.290   2.290   2.290   2.290   2.290   2.290   2.290   2.290   2.290   2.290   2.290   2.290   2.290   2.290   2.290   2.290   2.290   2.290   2.290   2.290   2.290   2.290   2.290   2.290   2.290   2.290   2.290   2.290   2.290   2.290   2.290   2.290   2.290   2.290
   292.43    2.290   2.290   2.290   2.290   2.290   2.290   2.290   2.290   2.290   2.290   2.290   2.290   2.290   2.290   2.290   2.290   2.290   2.290   2.290   2.290   2.290   2.290   2.290   2.290   2.290   2.290   2.290   2.290   2.290   2.290   2.290   2.290   2.290   2.290   2.290   2.290
   283.86    2.290   2.290   2.290   2.290   2.290   2.290   2.290   2.290   2.290   2.290   2.290   2.290   2.290   2.290   2.290   2.290   2.290   2.290   2.290   2.290   2.290   2.290   2.290   2.290   2.290   2.290   2.290   2.290   2.290   2.290   2.290   2.290   2.290   2.290   2.290   2.290
   275.29    2.290   2.290   2.290   2.290   2.290   2.290   2.290   2.290   2.290   2.290   2.290   2.290   2.290   2.290   2.290   2.290   2.290   2.290   2.290   2.290   2.290   2.290   2.290   2.290   2.290   2.290   2.290   2.290   2.290   2.290   2.290   2.290   2.290   2.290   2.290   2.290
   266.71    2.290   2.290   2.290   2.290   2.290   2.290   2.290   2.290   2.290   2.290   2.290   2.290   2.290   2.290   2.290   2.290   2.290   2.290   2.290   2.290   2.290   2.290   2.290   2.290   2.290   2.290   2.290   2.290   2.290   2.290   2.290   2.290   2.290   2.290   2.290   2.290
   258.14    2.290   2.290   2.290   2.290   2.290   2.290   2.290   2.290   2.290   2.290   2.290   2.290   2.290   2.290   2.290   2.290   2.290   2.290   2.290   2.290   2.290   2.290   2.290   2.290   2.290   2.290   2.290   2.290   2.290   2.290   2.290   2.290   2.290   2.290   2.290   2.290
   249.57    2.290   2.290   2.290   2.290   2.290   2.290   2.290   2.290   2.290   2.290   2.290   2.290   2.290   2.290   2.290   2.290   2.290   2.290   2.290   2.290   2.290   2.290   2.290   2.290   2.290   2.290   2.290   2.290   2.290   2.290   2.290   2.290   2.290   2.290   2.290   2.290
   241.00    2.290   2.290   2.290   2.290   2.290   2.290   2.290   2.290   2.290   2.290   2.290   2.290   2.290   2.290   2.290   2.290   2.290   2.290   2.290   2.290   2.290   2.290   2.290   2.290   2.290   2.290   2.290   2.290   2.290   2.290   2.290   2.290   2.290   2.290   2.290   2.290
   232.43    2.290   2.290   2.290   2.290   2.290   2.290   2.290   2.290   2.290   2.290   2.290   2.290   2.290   2.290   2.290   2.290   2.290   2.290   2.290   2.290   2.290   2.290   2.290   2.290   2.290   2.290   2.290   2.290   2.290   2.290   2.290   2.290   2.290   2.290   2.290   2.290
   223.86    2.290   2.290   2.290   2.290   2.290   2.290   2.290   2.290   2.290   2.290   2.290   2.290   2.290   2.290   2.290   2.290   2.290   2.290   2.290   2.290   2.290   2.290   2.290   2.290   2.290   2.290   2.290   2.290   2.290   2.290   2.290   2.290   2.290   2.290   2.290   2.290
   215.29    2.290   2.290   2.290   2.290   2.290   2.290   2.290   2.290   2.290   2.290   2.290   2.290   2.290   2.290   2.290   2.290   2.290   2.290   2.290   2.290   2.290   2.290   2.290   2.290   2.290   2.290   2.290   2.290   2.290   2.290   2.290   2.290   2.290   2.290   2.290   2.290
   206.71    2.290   2.290   2.290   2.290   2.290   2.290   2.290   2.290   2.290   2.290   2.290   2.290   2.290   2.290   2.290   2.290   2.290   2.290   2.290   2.290   2.290   2.290   2.290   2.290   2.290   2.290   2.290   2.290   2.290   2.290   2.290   2.290   2.290   2.290   2.290   2.290
   198.14    2.290   2.290   2.290   2.290   2.290   2.290   2.290   2.290   2.290   2.290   2.290   2.290   2.290   2.290   2.290   2.290   2.290   2.290   2.290   2.290   2.290   2.290   2.290   2.290   2.290   2.290   2.290   2.290   2.290   2.290   2.290   2.290   2.290   2.290   2.290   2.290
   189.57    2.290   2.290   2.290   2.290   2.290   2.290   2.290   2.290   2.290   2.290   2.290   2.290   2.290   2.290   2.290   2.290   2.290   2.290   2.290   2.290   2.290   2.290   2.290   2.290   2.290   2.290   2.290   2.290   2.290   2.290   2.290   2.290   2.290   2.290   2.290   2.290
   181.00    2.290   2.290   2.290   2.290   2.290   2.290   2.290   2.290   2.290   2.290   2.290   2.290   2.290   2.290   2.290   2.290   2.290   2.290   2.290   2.290   2.290   2.290   2.290   2.290   2.290   2.290   2.290   2.290   2.290   2.290   2.290   2.290   2.290   2.290   2.290   2.290
   172.43    2.290   2.290   2.290   2.290   2.290   2.290   2.290   2.290   2.290   2.290   2.290   2.290   2.290   2.290   2.290   2.290   2.290   2.290   2.290   2.290   2.290   2.290   2.290   2.290   2.290   2.290   2.290   2.290   2.290   2.290   2.290   2.290   2.290   2.290   2.290   2.290
   163.86    2.290   2.290   2.290   2.290   2.290   2.290   2.290   2.290   2.290   2.290   2.290   2.290   2.290   2.290   2.290   2.290   2.290   2.290   2.290   2.290   2.290   2.290   2.290   2.290   2.290   2.290   2.290   2.290   2.290   2.290   2.290   2.290   2.290   2.290   2.290   2.290
   155.29    2.290   2.290   2.290   2.290   2.290   2.290   2.290   2.290   2.290   2.290   2.290   2.290   2.290   2.290   2.290   2.290   2.290   2.290   2.290   2.290   2.290   2.290   2.290   2.290   2.290   2.290   2.290   2.290   2.290   2.290   2.290   2.290   2.290   2.290   2.290   2.290
   146.71    2.290   2.290   2.290   2.290   2.290   2.290   2.290   2.290   2.290   2.290   2.290   2.290   2.290   2.290   2.290   2.290   2.290   2.290   2.290   2.290   2.290   2.290   2.290   2.290   2.290   2.290   2.290   2.290   2.290   2.290   2.290   2.290   2.290   2.290   2.290   2.290
   138.14    2.290   2.290   2.290   2.290   2.290   2.290   2.290   2.290   2.290   2.290   2.290   2.290   2.290   2.290   2.290   2.290   2.290   2.290   2.290   2.290   2.290   2.290   2.290   2.290   2.290   2.290   2.290   2.290   2.290   2.290   2.290   2.290   2.290   2.290   2.290   2.290
   129.57    2.290   2.290   2.290   2.290   2.290   2.290   2.290   2.290   2.290   2.290   2.290   2.290   2.290   2.290   2.290   2.290   2.290   2.290   2.290   2.290   2.290   2.290   2.290   2.290   2.290   2.290   2.290   2.290   2.290   2.290   2.290   2.290   2.290   2.290   2.290   2.290
   121.00    2.290   2.290   2.290   2.290   2.290   2.290   2.290   2.290   2.290   2.290   2.290   2.290   2.290   2.290   2.290   2.290   2.290   2.290   2.290   2.290   2.290   2.290   2.290   2.290   2.290   2.290   2.290   2.290   2.290   2.290   2.290   2.290   2.290   2.290   2.290   2.290
   112.43    2.290   2.290   2.290   2.290   2.290   2.290   2.290   2.290   2.290   2.290   2.290   2.290   2.290   2.290   2.290   2.290   2.290   2.290   2.290   2.290   2.290   2.290   2.290   2.290   2.290   2.290   2.290   2.290   2.290   2.290   2.290   2.290   2.290   2.290   2.290   2.290
   103.86    2.290   2.290   2.290   2.290   2.290   2.290   2.290   2.290   2.290   2.290   2.290   2.290   2.290   2.290   2.290   2.290   2.290   2.290   2.290   2.290   2.290   2.290   2.290   2.290   2.290   2.290   2.290   2.290   2.290   2.290   2.290   2.290   2.290   2.290   2.290   2.290
    95.29    2.290   2.290   2.290   2.290   2.290   2.290   2.290   2.290   2.290   2.290   2.290   2.290   2.290   2.290   2.290   2.290   2.290   2.290   2.290   2.290   2.290   2.290   2.290   2.290   2.290   2.290   2.290   2.290   2.290   2.290   2.290   2.290   2.290   2.290   2.290   2.290
    86.71    2.290   2.290   2.290   2.290   2.290   2.290   2.290   2.290   2.290   2.290   2.290   2.290   2.290   2.290   2.290   2.290   2.290   2.290   2.290   2.290   2.290   2.290   2.290   2.290   2.290   2.290   2.290   2.290   2.290   2.290   2.290   2.290   2.290   2.290   2.290   2.290
    78.14    2.290   2.290   2.290   2.290   2.290   2.290   2.290   2.290   2.290   2.290   2.290   2.290   2.290   2.290   2.290   2.290   2.290   2.290   2.290   2.290   2.290   2.290   2.290   2.290   2.290   2.290   2.290   2.290   2.290   2.290   2.290   2.290   2.290   2.290   2.290   2.290
    69.57    2.290   2.290   2.290   2.290   2.290   2.290   2.290   2.290   2.290   2.290   2.290   2.290   2.290   2.290   2.290   2.290   2.290   2.290   2.290   2.290   2.290   2.290   2.290   2.290   2.290   2.290   2.290   2.290   2.290   2.290   2.290   2.290   2.290   2.290   2.290   2.290
    61.00    2.290   2.290   2.290   2.290   2.290   2.290   2.290   2.290   2.290   2.290   2.290   2.290   2.290   2.290   2.290   2.290   2.290   2.290   2.290   2.290   2.290   2.290   2.290   2.290   2.290   2.290   2.290   2.290   2.290   2.290   2.290   2.290   2.290   2.290   2.290   2.290
    52.43    2.290   2.290   2.290   2.290   2.290   2.290   2.290   2.290   2.290   2.290   2.290   2.290   2.290   2.290   2.290   2.290   2.290   2.290   2.290   2.290   2.290   2.290   2.290   2.290   2.290   2.290   2.290   2.290   2.290   2.290   2.290   2.290   2.290   2.290   2.290   2.290
    43.86    2.290   2.290   2.290   2.290   2.290   2.290   2.290   2.290   2.290   2.290   2.290   2.290   2.290   2.290   2.290   2.290   2.290   2.290   2.290   2.290   2.290   2.290   2.290   2.290   2.290   2.290   2.290   2.290   2.290   2.290   2.290   2.290   2.290   2.290   2.290   2.290
    35.29    2.290   2.290   2.290   2.290   2.290   2.290   2.290   2.290   2.290   2.290   2.290   2.290   2.290   2.290   2.290   2.290   2.290   2.290   2.290   2.290   2.290   2.290   2.290   2.290   2.290   2.290   2.290   2.290   2.290   2.290   2.290   2.290   2.290   2.290   2.290   2.290
    26.71    2.290   2.290   2.290   2.290   2.290   2.290   2.290   2.290   2.290   2.290   2.290   2.290   2.290   2.290   2.290   2.290   2.290   2.290   2.290   2.290   2.290   2.290   2.290   2.290   2.290   2.290   2.290   2.290   2.290   2.290   2.290   2.290   2.290   2.290   2.290   2.290
    18.14    2.290   2.290   2.290   2.290   2.290   2.290   2.290   2.290   2.290   2.290   2.290   2.290   2.290   2.290   2.290   2.290   2.290   2.290   2.290   2.290   2.290   2.290   2.290   2.290   2.290   2.290   2.290   2.290   2.290   2.290   2.290   2.290   2.290   2.290   2.290   2.290
     9.57    2.290   2.290   2.290   2.290   2.290   2.290   2.290   2.290   2.290   2.290   2.290   2.290   2.290   2.290   2.290   2.290   2.290   2.290   2.290   2.290   2.290   2.290   2.290   2.290   2.290   2.290   2.290   2.290   2.290   2.290   2.290   2.290   2.290   2.290   2.290   2.290
     1.00    2.290   2.290   2.290   2.290   2.290   2.290   2.290   2.290   2.290   2.290   2.290   2.290   2.290   2.290   2.290   2.290   2.290   2.290   2.290   2.290   2.290   2.290   2.290   2.290   2.290   2.290   2.290   2.290   2.290   2.290   2.290   2.290   2.290   2.290   2.290   2.290

   Height   Standard deviation at grid points for the w component:
   301.00    2.290   2.290   2.290   2.290   2.290   2.290   2.290   2.290   2.290   2.290   2.290   2.290   2.290   2.290   2.290   2.290   2.290   2.290   2.290   2.290   2.290   2.290   2.290   2.290   2.290   2.290   2.290   2.290   2.290   2.290   2.290   2.290   2.290   2.290   2.290   2.290
   292.43    2.290   2.290   2.290   2.290   2.290   2.290   2.290   2.290   2.290   2.290   2.290   2.290   2.290   2.290   2.290   2.290   2.290   2.290   2.290   2.290   2.290   2.290   2.290   2.290   2.290   2.290   2.290   2.290   2.290   2.290   2.290   2.290   2.290   2.290   2.290   2.290
   283.86    2.290   2.290   2.290   2.290   2.290   2.290   2.290   2.290   2.290   2.290   2.290   2.290   2.290   2.290   2.290   2.290   2.290   2.290   2.290   2.290   2.290   2.290   2.290   2.290   2.290   2.290   2.290   2.290   2.290   2.290   2.290   2.290   2.290   2.290   2.290   2.290
   275.29    2.290   2.290   2.290   2.290   2.290   2.290   2.290   2.290   2.290   2.290   2.290   2.290   2.290   2.290   2.290   2.290   2.290   2.290   2.290   2.290   2.290   2.290   2.290   2.290   2.290   2.290   2.290   2.290   2.290   2.290   2.290   2.290   2.290   2.290   2.290   2.290
   266.71    2.290   2.290   2.290   2.290   2.290   2.290   2.290   2.290   2.290   2.290   2.290   2.290   2.290   2.290   2.290   2.290   2.290   2.290   2.290   2.290   2.290   2.290   2.290   2.290   2.290   2.290   2.290   2.290   2.290   2.290   2.290   2.290   2.290   2.290   2.290   2.290
   258.14    2.290   2.290   2.290   2.290   2.290   2.290   2.290   2.290   2.290   2.290   2.290   2.290   2.290   2.290   2.290   2.290   2.290   2.290   2.290   2.290   2.290   2.290   2.290   2.290   2.290   2.290   2.290   2.290   2.290   2.290   2.290   2.290   2.290   2.290   2.290   2.290
   249.57    2.290   2.290   2.290   2.290   2.290   2.290   2.290   2.290   2.290   2.290   2.290   2.290   2.290   2.290   2.290   2.290   2.290   2.290   2.290   2.290   2.290   2.290   2.290   2.290   2.290   2.290   2.290   2.290   2.290   2.290   2.290   2.290   2.290   2.290   2.290   2.290
   241.00    2.290   2.290   2.290   2.290   2.290   2.290   2.290   2.290   2.290   2.290   2.290   2.290   2.290   2.290   2.290   2.290   2.290   2.290   2.290   2.290   2.290   2.290   2.290   2.290   2.290   2.290   2.290   2.290   2.290   2.290   2.290   2.290   2.290   2.290   2.290   2.290
   232.43    2.290   2.290   2.290   2.290   2.290   2.290   2.290   2.290   2.290   2.290   2.290   2.290   2.290   2.290   2.290   2.290   2.290   2.290   2.290   2.290   2.290   2.290   2.290   2.290   2.290   2.290   2.290   2.290   2.290   2.290   2.290   2.290   2.290   2.290   2.290   2.290
   223.86    2.290   2.290   2.290   2.290   2.290   2.290   2.290   2.290   2.290   2.290   2.290   2.290   2.290   2.290   2.290   2.290   2.290   2.290   2.290   2.290   2.290   2.290   2.290   2.290   2.290   2.290   2.290   2.290   2.290   2.290   2.290   2.290   2.290   2.290   2.290   2.290
   215.29    2.290   2.290   2.290   2.290   2.290   2.290   2.290   2.290   2.290   2.290   2.290   2.290   2.290   2.290   2.290   2.290   2.290   2.290   2.290   2.290   2.290   2.290   2.290   2.290   2.290   2.290   2.290   2.290   2.290   2.290   2.290   2.290   2.290   2.290   2.290   2.290
   206.71    2.290   2.290   2.290   2.290   2.290   2.290   2.290   2.290   2.290   2.290   2.290   2.290   2.290   2.290   2.290   2.290   2.290   2.290   2.290   2.290   2.290   2.290   2.290   2.290   2.290   2.290   2.290   2.290   2.290   2.290   2.290   2.290   2.290   2.290   2.290   2.290
   198.14    2.290   2.290   2.290   2.290   2.290   2.290   2.290   2.290   2.290   2.290   2.290   2.290   2.290   2.290   2.290   2.290   2.290   2.290   2.290   2.290   2.290   2.290   2.290   2.290   2.290   2.290   2.290   2.290   2.290   2.290   2.290   2.290   2.290   2.290   2.290   2.290
   189.57    2.290   2.290   2.290   2.290   2.290   2.290   2.290   2.290   2.290   2.290   2.290   2.290   2.290   2.290   2.290   2.290   2.290   2.290   2.290   2.290   2.290   2.290   2.290   2.290   2.290   2.290   2.290   2.290   2.290   2.290   2.290   2.290   2.290   2.290   2.290   2.290
   181.00    2.290   2.290   2.290   2.290   2.290   2.290   2.290   2.290   2.290   2.290   2.290   2.290   2.290   2.290   2.290   2.290   2.290   2.290   2.290   2.290   2.290   2.290   2.290   2.290   2.290   2.290   2.290   2.290   2.290   2.290   2.290   2.290   2.290   2.290   2.290   2.290
   172.43    2.290   2.290   2.290   2.290   2.290   2.290   2.290   2.290   2.290   2.290   2.290   2.290   2.290   2.290   2.290   2.290   2.290   2.290   2.290   2.290   2.290   2.290   2.290   2.290   2.290   2.290   2.290   2.290   2.290   2.290   2.290   2.290   2.290   2.290   2.290   2.290
   163.86    2.290   2.290   2.290   2.290   2.290   2.290   2.290   2.290   2.290   2.290   2.290   2.290   2.290   2.290   2.290   2.290   2.290   2.290   2.290   2.290   2.290   2.290   2.290   2.290   2.290   2.290   2.290   2.290   2.290   2.290   2.290   2.290   2.290   2.290   2.290   2.290
   155.29    2.290   2.290   2.290   2.290   2.290   2.290   2.290   2.290   2.290   2.290   2.290   2.290   2.290   2.290   2.290   2.290   2.290   2.290   2.290   2.290   2.290   2.290   2.290   2.290   2.290   2.290   2.290   2.290   2.290   2.290   2.290   2.290   2.290   2.290   2.290   2.290
   146.71    2.290   2.290   2.290   2.290   2.290   2.290   2.290   2.290   2.290   2.290   2.290   2.290   2.290   2.290   2.290   2.290   2.290   2.290   2.290   2.290   2.290   2.290   2.290   2.290   2.290   2.290   2.290   2.290   2.290   2.290   2.290   2.290   2.290   2.290   2.290   2.290
   138.14    2.290   2.290   2.290   2.290   2.290   2.290   2.290   2.290   2.290   2.290   2.290   2.290   2.290   2.290   2.290   2.290   2.290   2.290   2.290   2.290   2.290   2.290   2.290   2.290   2.290   2.290   2.290   2.290   2.290   2.290   2.290   2.290   2.290   2.290   2.290   2.290
   129.57    2.290   2.290   2.290   2.290   2.290   2.290   2.290   2.290   2.290   2.290   2.290   2.290   2.290   2.290   2.290   2.290   2.290   2.290   2.290   2.290   2.290   2.290   2.290   2.290   2.290   2.290   2.290   2.290   2.290   2.290   2.290   2.290   2.290   2.290   2.290   2.290
   121.00    2.290   2.290   2.290   2.290   2.290   2.290   2.290   2.290   2.290   2.290   2.290   2.290   2.290   2.290   2.290   2.290   2.290   2.290   2.290   2.290   2.290   2.290   2.290   2.290   2.290   2.290   2.290   2.290   2.290   2.290   2.290   2.290   2.290   2.290   2.290   2.290
   112.43    2.290   2.290   2.290   2.290   2.290   2.290   2.290   2.290   2.290   2.290   2.290   2.290   2.290   2.290   2.290   2.290   2.290   2.290   2.290   2.290   2.290   2.290   2.290   2.290   2.290   2.290   2.290   2.290   2.290   2.290   2.290   2.290   2.290   2.290   2.290   2.290
   103.86    2.290   2.290   2.290   2.290   2.290   2.290   2.290   2.290   2.290   2.290   2.290   2.290   2.290   2.290   2.290   2.290   2.290   2.290   2.290   2.290   2.290   2.290   2.290   2.290   2.290   2.290   2.290   2.290   2.290   2.290   2.290   2.290   2.290   2.290   2.290   2.290
    95.29    2.290   2.290   2.290   2.290   2.290   2.290   2.290   2.290   2.290   2.290   2.290   2.290   2.290   2.290   2.290   2.290   2.290   2.290   2.290   2.290   2.290   2.290   2.290   2.290   2.290   2.290   2.290   2.290   2.290   2.290   2.290   2.290   2.290   2.290   2.290   2.290
    86.71    2.290   2.290   2.290   2.290   2.290   2.290   2.290   2.290   2.290   2.290   2.290   2.290   2.290   2.290   2.290   2.290   2.290   2.290   2.290   2.290   2.290   2.290   2.290   2.290   2.290   2.290   2.290   2.290   2.290   2.290   2.290   2.290   2.290   2.290   2.290   2.290
    78.14    2.290   2.290   2.290   2.290   2.290   2.290   2.290   2.290   2.290   2.290   2.290   2.290   2.290   2.290   2.290   2.290   2.290   2.290   2.290   2.290   2.290   2.290   2.290   2.290   2.290   2.290   2.290   2.290   2.290   2.290   2.290   2.290   2.290   2.290   2.290   2.290
    69.57    2.290   2.290   2.290   2.290   2.290   2.290   2.290   2.290   2.290   2.290   2.290   2.290   2.290   2.290   2.290   2.290   2.290   2.290   2.290   2.290   2.290   2.290   2.290   2.290   2.290   2.290   2.290   2.290   2.290   2.290   2.290   2.290   2.290   2.290   2.290   2.290
    61.00    2.290   2.290   2.290   2.290   2.290   2.290   2.290   2.290   2.290   2.290   2.290   2.290   2.290   2.290   2.290   2.290   2.290   2.290   2.290   2.290   2.290   2.290   2.290   2.290   2.290   2.290   2.290   2.290   2.290   2.290   2.290   2.290   2.290   2.290   2.290   2.290
    52.43    2.290   2.290   2.290   2.290   2.290   2.290   2.290   2.290   2.290   2.290   2.290   2.290   2.290   2.290   2.290   2.290   2.290   2.290   2.290   2.290   2.290   2.290   2.290   2.290   2.290   2.290   2.290   2.290   2.290   2.290   2.290   2.290   2.290   2.290   2.290   2.290
    43.86    2.290   2.290   2.290   2.290   2.290   2.290   2.290   2.290   2.290   2.290   2.290   2.290   2.290   2.290   2.290   2.290   2.290   2.290   2.290   2.290   2.290   2.290   2.290   2.290   2.290   2.290   2.290   2.290   2.290   2.290   2.290   2.290   2.290   2.290   2.290   2.290
    35.29    2.290   2.290   2.290   2.290   2.290   2.290   2.290   2.290   2.290   2.290   2.290   2.290   2.290   2.290   2.290   2.290   2.290   2.290   2.290   2.290   2.290   2.290   2.290   2.290   2.290   2.290   2.290   2.290   2.290   2.290   2.290   2.290   2.290   2.290   2.290   2.290
    26.71    2.290   2.290   2.290   2.290   2.290   2.290   2.290   2.290   2.290   2.290   2.290   2.290   2.290   2.290   2.290   2.290   2.290   2.290   2.290   2.290   2.290   2.290   2.290   2.290   2.290   2.290   2.290   2.290   2.290   2.290   2.290   2.290   2.290   2.290   2.290   2.290
    18.14    2.290   2.290   2.290   2.290   2.290   2.290   2.290   2.290   2.290   2.290   2.290   2.290   2.290   2.290   2.290   2.290   2.290   2.290   2.290   2.290   2.290   2.290   2.290   2.290   2.290   2.290   2.290   2.290   2.290   2.290   2.290   2.290   2.290   2.290   2.290   2.290
     9.57    2.290   2.290   2.290   2.290   2.290   2.290   2.290   2.290   2.290   2.290   2.290   2.290   2.290   2.290   2.290   2.290   2.290   2.290   2.290   2.290   2.290   2.290   2.290   2.290   2.290   2.290   2.290   2.290   2.290   2.290   2.290   2.290   2.290   2.290   2.290   2.290
     1.00    2.290   2.290   2.290   2.290   2.290   2.290   2.290   2.290   2.290   2.290   2.290   2.290   2.290   2.290   2.290   2.290   2.290   2.290   2.290   2.290   2.290   2.290   2.290   2.290   2.290   2.290   2.290   2.290   2.290   2.290   2.290   2.290   2.290   2.290   2.290   2.290

   Mean standard deviation across all grid points:
      u component:    2.135 m/s
      v component:    2.290 m/s
      w component:    2.290 m/s


U-component (X) statistics from the interpolated hub point:

   Mean =  11.9677 m/s
   TI   =  16.7338 %


Normalizing Parameters for Binary Data (approximate statistics):

   UBar  =  11.9685 m/s
   TI(u) =  19.4016 %
   TI(v) =  19.1297 %
   TI(w) =  19.1297 %

   Height Offset =   0.0000 m
   Grid Base     =   1.0000 m

Creating a PERIODIC output file.


Processing complete.  118.22 CPU seconds used.
