
This summary file was generated by TurbSim (v2.00.07a-bjj, 14-Jun-2016) on 03-Nov-2023 at 03:24:08.


Runtime Options:

      4201  Random seed #1
    RANLUX  Type of random number generator
         F  Output binary HH turbulence parameters?
         F  Output formatted turbulence parameters?
         F  Output AeroDyn HH files?
         F  Output AeroDyn FF files?
         T  Output BLADED FF files?
         F  Output tower data?
         F  Output formatted FF files?
         F  Output coherent turbulence time step file?
         T  Clockwise rotation when looking downwind?
 0 -  NONE  IEC turbulence models scaled to exact specified standard deviation


Turbine/Model Specifications:

        36  Vertical grid-point matrix dimension
        36  Horizontal grid-point matrix dimension
     0.100  Time step [seconds]
   660.000  Analysis time [seconds]
   660.000  Usable output time [seconds]
   151.000  Hub height [m]
   300.000  Grid height [m]
   300.000  Grid width [m]
     0.000  Vertical flow angle [degrees]
     0.000  Horizontal flow angle [degrees]


Meteorological Boundary Conditions:

    IECVKM  IEC von Karman spectral model
         1  IEC standard: IEC 61400-1 Ed. 3: 2005
         A  IEC turbulence characteristic
       NTM  IEC Normal Turbulence Model
       N/A  IEC Extreme Turbulence Model (ETM) "c" parameter [m/s]
       PL   Wind profile type
   153.000  Reference height [m]
    18.000  Reference wind speed [m/s]
       N/A  Jet height [m]
     0.200  Power law exponent
     0.030  Surface roughness length [m]


Non-IEC Meteorological Boundary Conditions:

       N/A  Site latitude [degrees]
       N/A  Gradient Richardson number
       N/A  Friction or shear velocity [m/s]
       N/A  Mixing layer depth [m]
       N/A  Mean hub u'w' Reynolds stress
       N/A  Mean hub u'v' Reynolds stress
       N/A  Mean hub v'w' Reynolds stress


Spatial Coherence Models:

       IEC  u-component coherence model
      NONE  v-component coherence model
      NONE  w-component coherence model
(   12.000, 0.353E-03)  u-component coherence parameters
                   N/A  v-component coherence parameters
                   N/A  w-component coherence parameters
       N/A  Coherence exponent


You have requested that the following file(s) be generated:

   G:\2023\OpenWECDV1.0.0_x64\BaseLIne\wind\WindL_V_18_seed_4201.wnd (AeroDyn/BLADED full-field wnd file)


Turbulence Simulation Scaling Parameter Summary:

   Turbulence model used                            =  IEC von Karman
   Turbulence characteristic                        =  A
   IEC turbulence type                              =  Normal Turbulence Model
   IEC standard                                     =  IEC 61400-1 Ed. 3: 2005
   Mean wind speed at hub height                    =   17.953 m/s
   Expected value of turbulence intensity at 15 m/s =   16.000%
   Characteristic value of standard deviation       =    3.050 m/s
   Turbulence scale                                 =   42.000 m
   Isotropic integral scale                         =  147.000 m
   Characteristic value of hub turbulence intensity =   16.991%
   Gradient Richardson number                       =    0.000

   Wind profile type                                =  Power law
   Power law exponent                               =    0.200
   Mean shear across rotor disk                     =    0.047 (m/s)/m
   Assumed rotor diameter                           =  300.000 m
   Surface roughness length                         =    0.030 m

   Nyquist frequency of turbulent wind field        =    5.000 Hz

   Number of time steps in the FFT                  =     6600
   Number of time steps output                      =     6600
   Number of points simulated                       =     1297


Mean Flow Angles:

   Vertical   =   0.0 degrees
   Horizontal =   0.0 degrees

Mean Wind Speed Profile:

   Height    Wind Speed   Horizontal Angle  Vertical Angle  U-comp (X)   V-comp (Y)   W-comp (Z)
     (m)        (m/s)         (degrees)       (degrees)       (m/s)        (m/s)        (m/s)   
   ------    ----------   ----------------  --------------  ----------   ----------   ----------
    301.0       20.61            0.00            0.00         20.61         0.00         0.00
    292.4       20.49            0.00            0.00         20.49         0.00         0.00
    283.9       20.37            0.00            0.00         20.37         0.00         0.00
    275.3       20.24            0.00            0.00         20.24         0.00         0.00
    266.7       20.12            0.00            0.00         20.12         0.00         0.00
    258.1       19.99            0.00            0.00         19.99         0.00         0.00
    249.6       19.85            0.00            0.00         19.85         0.00         0.00
    241.0       19.71            0.00            0.00         19.71         0.00         0.00
    232.4       19.57            0.00            0.00         19.57         0.00         0.00
    223.9       19.42            0.00            0.00         19.42         0.00         0.00
    215.3       19.27            0.00            0.00         19.27         0.00         0.00
    206.7       19.12            0.00            0.00         19.12         0.00         0.00
    198.1       18.96            0.00            0.00         18.96         0.00         0.00
    189.6       18.79            0.00            0.00         18.79         0.00         0.00
    181.0       18.62            0.00            0.00         18.62         0.00         0.00
    172.4       18.44            0.00            0.00         18.44         0.00         0.00
    163.9       18.25            0.00            0.00         18.25         0.00         0.00
    155.3       18.05            0.00            0.00         18.05         0.00         0.00
    151.0       17.95            0.00            0.00         17.95         0.00         0.00
    146.7       17.85            0.00            0.00         17.85         0.00         0.00
    138.1       17.64            0.00            0.00         17.64         0.00         0.00
    129.6       17.41            0.00            0.00         17.41         0.00         0.00
    121.0       17.17            0.00            0.00         17.17         0.00         0.00
    112.4       16.92            0.00            0.00         16.92         0.00         0.00
    103.9       16.66            0.00            0.00         16.66         0.00         0.00
     95.3       16.37            0.00            0.00         16.37         0.00         0.00
     86.7       16.07            0.00            0.00         16.07         0.00         0.00
     78.1       15.74            0.00            0.00         15.74         0.00         0.00
     69.6       15.38            0.00            0.00         15.38         0.00         0.00
     61.0       14.98            0.00            0.00         14.98         0.00         0.00
     52.4       14.53            0.00            0.00         14.53         0.00         0.00
     43.9       14.02            0.00            0.00         14.02         0.00         0.00
     35.3       13.42            0.00            0.00         13.42         0.00         0.00
     26.7       12.70            0.00            0.00         12.70         0.00         0.00
     18.1       11.75            0.00            0.00         11.75         0.00         0.00
      9.6       10.34            0.00            0.00         10.34         0.00         0.00
      1.0        6.58            0.00            0.00          6.58         0.00         0.00


Harvested Random Seeds after Generation of the Random Numbers:

    119307688 K 1
            0 K 2


Hub-Height Simulated Turbulence Statistical Summary:

   Type of Wind        Min (m/s)   Mean (m/s)    Max (m/s)  Sigma (m/s)       TI (%)
   ----------------    ---------   ----------    ---------  -----------       ------
   Longitudinal (u)         7.85        17.95        26.74        2.992       16.664
   Lateral (v)             -9.74        -0.00         9.38        2.997       16.694
   Vertical (w)            -9.31        -0.00        10.41        2.997       16.694
   U component              7.85        17.95        26.74        2.992       16.664
   V component             -9.74        -0.00         9.38        2.997       16.694
   W component             -9.31        -0.00        10.41        2.997       16.694
   Horizontal (U&V)         8.08        18.20        27.10        2.981       16.378
   Total                    8.20        18.45        27.27        2.981       16.159

                       Min Reynolds     Mean Reynolds    Max Reynolds    Correlation
   Product             Stress (m/s)^2   Stress (m/s)^2   Stress (m/s)^2  Coefficient
   ----------------    --------------   --------------   --------------  -----------
   u'w'                    -43.973            -0.443            68.438        -0.049
   u'v'                    -50.596            -0.122            40.943        -0.014
   v'w'                    -51.393            -0.486            51.376        -0.054


   Friction Velocity (Ustar)  =      0.666 m/s
   Maximum Instantaneous TKE  =     75.835 (m/s)^2
   Maximum Instantaneous CTKE =     43.283 (m/s)^2


Grid Point Variance Summary:

   Y-coord -150.00 -141.43 -132.86 -124.29 -115.71 -107.14  -98.57  -90.00  -81.43  -72.86  -64.29  -55.71  -47.14  -38.57  -30.00  -21.43  -12.86   -4.29    4.29   12.86   21.43   30.00   38.57   47.14   55.71   64.29   72.86   81.43   90.00   98.57  107.14  115.71  124.29  132.86  141.43  150.00

   Height   Standard deviation at grid points for the u component:
   301.00    3.023   3.069   2.890   2.642   2.862   2.856   2.824   3.043   2.870   2.799   2.895   2.958   3.067   3.180   3.099   2.955   2.882   2.808   2.815   2.878   2.964   2.940   3.004   3.097   3.134   3.205   3.084   3.035   3.057   2.868   2.873   3.032   3.121   3.219   3.128   3.035
   292.43    3.043   3.019   2.833   2.738   2.886   2.978   2.919   2.947   2.937   2.902   2.863   2.788   2.912   3.092   3.083   2.975   2.687   2.664   2.708   2.852   2.831   2.881   2.886   2.985   3.063   3.159   2.994   2.992   2.771   2.919   2.900   3.038   3.027   3.178   3.182   3.075
   283.86    3.123   3.061   2.755   2.695   2.804   2.886   2.892   3.062   2.981   2.993   3.023   2.706   2.709   3.004   2.963   2.883   2.771   2.727   2.636   2.772   2.800   2.859   2.952   2.944   3.142   3.197   3.256   2.967   2.936   3.014   2.967   2.959   2.886   3.015   3.208   3.184
   275.29    3.095   2.907   2.986   2.869   2.820   2.836   3.008   3.052   2.843   2.921   2.926   2.729   2.682   2.956   2.950   2.935   2.732   2.735   2.568   2.620   2.602   2.684   2.912   2.939   3.113   3.187   3.202   3.091   2.960   2.917   2.946   3.051   2.967   3.032   3.026   3.018
   266.71    2.808   2.879   3.006   2.809   2.758   2.885   3.050   2.811   2.793   2.950   2.824   2.750   2.607   2.836   2.996   2.795   3.031   2.759   2.616   2.572   2.750   2.842   2.846   2.952   3.017   2.960   3.041   3.033   2.880   2.993   3.078   2.956   2.925   3.124   3.034   3.106
   258.14    2.920   2.730   2.760   2.805   2.873   2.807   2.870   2.779   2.732   2.943   2.823   2.684   2.706   2.789   2.957   2.930   2.984   2.674   2.589   2.744   2.871   2.767   2.769   2.850   2.853   3.009   2.939   2.850   3.154   3.117   2.999   3.003   2.985   3.116   2.993   2.992
   249.57    2.802   2.740   2.852   2.617   2.738   2.727   2.887   2.756   2.722   2.634   2.746   2.656   2.678   2.858   2.986   3.095   2.891   2.730   2.700   2.792   2.637   2.640   2.754   2.671   2.751   2.686   2.788   2.873   2.826   2.975   2.960   3.015   2.988   3.014   3.096   2.878
   241.00    2.627   2.672   2.787   2.911   2.702   2.628   2.628   2.684   2.707   2.628   2.662   2.599   2.659   2.781   2.827   2.852   2.825   2.686   2.792   2.672   2.680   2.656   2.706   2.718   2.725   2.666   2.733   2.778   2.827   2.734   2.859   2.823   2.845   2.897   3.033   3.052
   232.43    2.722   2.745   2.854   2.917   2.864   2.515   2.624   2.652   2.729   2.803   2.728   2.728   2.821   2.813   2.808   2.872   2.817   2.851   2.874   2.773   2.550   2.608   2.737   2.711   2.733   2.699   2.820   2.722   2.803   2.719   2.651   2.768   2.829   2.853   2.925   3.052
   223.86    2.915   2.765   2.712   2.879   2.871   2.648   2.673   2.645   2.810   2.806   2.922   2.942   2.968   2.995   2.876   2.832   2.869   2.945   2.909   2.895   2.757   2.819   2.604   2.625   2.696   2.722   2.755   2.735   2.651   2.681   2.743   2.663   2.884   2.779   2.699   2.835
   215.29    2.917   2.913   2.829   2.779   2.758   2.857   2.664   2.808   2.811   2.955   3.050   2.937   3.090   2.938   2.746   3.029   2.904   2.838   2.749   2.823   2.765   2.814   2.844   2.729   2.676   2.747   2.743   2.731   2.627   2.705   2.789   2.719   2.781   2.724   2.823   2.856
   206.71    2.928   2.951   2.846   2.956   2.997   2.839   2.670   2.657   2.946   2.992   3.070   2.987   2.990   2.831   2.878   3.003   2.839   2.712   2.658   2.564   2.646   2.894   2.967   3.045   2.774   2.658   2.722   2.771   2.694   2.662   2.739   2.641   2.689   2.662   2.785   2.697
   198.14    2.762   2.756   2.827   2.879   2.893   2.766   2.841   2.756   2.948   3.033   3.097   2.955   3.008   2.982   3.043   3.062   2.902   2.767   2.623   2.604   2.775   2.814   3.004   3.084   2.925   2.920   2.933   2.961   2.950   2.823   2.801   2.872   2.795   2.728   2.843   2.842
   189.57    2.795   2.713   2.738   2.807   2.867   2.879   2.880   2.790   2.829   3.013   2.969   3.061   2.943   2.942   3.052   3.030   2.934   2.941   2.913   2.825   2.893   2.792   2.746   2.984   2.895   3.034   3.096   3.198   3.100   2.930   2.986   2.829   2.906   2.733   2.859   2.919
   181.00    2.714   2.537   2.737   2.910   2.979   2.875   2.847   2.703   2.782   2.902   2.770   2.897   2.999   2.917   3.040   2.933   3.070   3.048   3.068   2.978   2.924   2.802   2.876   2.946   3.030   3.037   3.206   3.061   2.992   3.034   2.910   2.962   2.999   2.916   2.874   3.129
   172.43    2.836   2.710   2.760   2.939   2.968   2.770   2.745   2.675   2.833   2.957   2.904   2.868   2.952   3.026   3.215   3.162   3.249   3.039   2.953   3.041   2.987   2.927   2.960   2.949   3.069   2.990   3.054   3.113   3.033   2.998   2.886   3.012   2.927   2.956   3.017   3.040
   163.86    3.016   2.923   3.049   3.143   3.146   3.021   2.905   2.780   2.820   3.011   3.110   3.081   3.035   3.055   3.195   3.260   3.231   3.110   2.904   3.002   3.047   2.804   2.956   3.012   3.033   3.061   3.119   3.188   2.990   2.927   2.953   2.864   2.875   2.907   3.059   2.959
   155.29    3.131   3.080   3.090   3.155   3.222   3.077   3.002   2.865   2.932   3.016   3.193   3.181   3.045   3.175   3.167   3.105   3.220   2.860   2.937   3.035   3.065   3.027   3.043   3.014   2.886   2.961   3.143   3.089   2.797   2.884   2.897   2.833   2.723   2.934   3.039   3.042
   146.71    3.172   3.226   3.127   3.113   3.040   3.152   2.992   2.834   2.978   2.977   3.191   3.111   3.099   3.066   3.095   3.177   3.172   2.936   2.929   3.074   3.124   2.989   2.873   2.897   2.945   3.178   3.026   3.054   2.930   2.841   2.787   2.720   2.839   2.878   2.960   3.075
   138.14    3.074   3.131   3.190   3.096   3.024   3.008   3.089   2.977   3.149   3.218   3.059   3.132   3.062   3.023   3.018   3.056   3.066   2.941   2.907   3.037   3.023   2.964   2.858   3.054   3.083   3.114   3.110   3.050   2.897   2.848   2.746   2.698   2.648   2.784   2.894   2.938
   129.57    3.016   3.028   3.272   3.067   3.007   3.208   3.097   3.167   3.098   3.079   3.067   3.106   3.184   2.995   2.872   2.804   2.845   2.925   3.024   2.917   3.086   3.046   2.780   2.791   3.023   2.932   2.907   2.974   2.960   2.804   2.844   2.672   2.825   2.858   2.784   2.886
   121.00    3.020   3.054   3.059   3.021   3.078   3.170   3.120   3.042   3.103   2.978   2.979   2.845   2.971   2.858   2.879   2.881   2.837   2.940   3.010   2.988   2.988   3.025   2.905   2.769   2.822   2.795   2.742   2.626   2.810   2.823   2.852   2.818   2.885   2.858   2.841   2.670
   112.43    3.010   2.949   2.895   2.745   2.943   2.917   3.068   3.044   3.013   3.043   3.003   2.841   2.909   2.905   2.856   2.825   2.749   2.854   2.786   2.815   2.883   2.881   2.842   2.941   2.924   2.793   2.721   2.856   2.839   2.884   2.845   2.901   2.856   2.934   2.764   2.841
   103.86    2.898   2.962   2.891   2.805   2.923   2.878   3.085   3.115   3.162   3.210   3.168   3.023   2.943   2.957   2.966   2.901   2.774   2.717   2.704   2.718   2.847   2.970   2.976   2.911   2.797   2.660   2.808   2.831   2.781   2.869   2.701   2.812   2.840   2.773   2.689   2.800
    95.29    2.853   2.902   2.883   2.874   2.860   2.857   2.854   3.064   3.323   3.268   3.018   3.041   2.784   2.884   2.865   2.854   2.654   2.693   2.572   2.709   2.992   2.948   2.978   2.873   2.720   2.658   2.830   2.757   2.780   2.867   2.722   2.819   2.807   2.654   2.607   2.633
    86.71    2.878   2.833   3.093   2.930   3.038   2.804   2.987   3.137   3.124   3.179   3.077   3.124   2.915   2.893   2.711   2.659   2.725   2.756   2.588   2.688   2.846   3.027   2.952   2.766   2.644   2.720   2.673   2.773   2.885   2.784   2.949   2.837   2.828   2.839   2.693   2.813
    78.14    3.048   2.931   3.102   3.218   2.982   2.826   2.914   3.089   3.120   3.185   3.271   3.162   3.083   3.020   2.818   2.662   2.737   2.707   2.494   2.698   2.902   3.046   2.886   2.694   2.750   2.857   2.889   2.873   2.917   2.837   2.755   2.857   3.054   2.993   2.825   2.728
    69.57    2.948   3.131   3.019   3.116   3.020   2.949   3.041   3.151   3.231   3.178   3.201   3.242   3.233   2.986   2.975   2.810   2.932   2.750   2.743   2.819   2.921   3.011   3.102   2.843   2.767   2.964   2.897   2.917   2.886   2.861   2.790   2.704   2.948   2.995   2.846   2.826
    61.00    3.081   3.237   3.046   3.079   2.971   2.888   2.963   3.176   3.170   3.203   3.057   3.226   3.184   3.193   3.074   2.983   2.917   2.954   2.833   2.828   2.904   2.911   3.023   3.060   3.034   3.157   3.007   2.899   2.877   2.857   2.970   2.833   2.927   2.881   2.938   2.976
    52.43    3.038   3.175   3.028   2.985   2.888   2.753   2.953   2.929   3.141   3.143   3.110   3.123   3.200   3.242   3.291   3.058   3.008   3.104   2.986   2.908   2.863   2.799   3.053   2.949   3.114   3.190   3.118   2.945   3.042   2.984   3.005   2.941   2.922   2.848   2.977   3.189
    43.86    2.958   3.104   2.878   2.924   2.942   2.928   2.918   2.882   2.912   2.980   3.058   3.055   3.290   3.200   3.369   3.153   3.036   3.183   3.018   2.876   2.914   2.847   2.918   2.872   3.061   3.073   3.044   3.023   3.035   3.040   2.989   2.879   2.950   3.063   3.096   3.261
    35.29    3.138   3.188   3.043   2.878   2.835   2.974   2.948   3.162   2.961   3.014   3.035   3.069   3.250   3.198   3.292   3.193   2.982   3.063   2.897   2.796   2.955   2.866   2.826   2.965   2.974   3.184   3.093   3.012   3.115   2.964   2.900   2.969   3.212   3.395   3.371   3.249
    26.71    2.983   3.246   3.021   2.847   2.778   2.957   2.988   3.069   2.988   2.878   2.805   3.034   3.110   3.088   3.051   3.180   2.979   2.979   2.995   3.028   3.088   2.870   2.902   2.937   3.032   3.083   2.917   3.205   2.948   3.023   3.003   3.258   3.251   3.234   3.344   3.244
    18.14    3.181   3.170   3.170   2.814   2.847   2.775   2.891   2.851   2.864   2.769   2.936   3.025   3.170   3.067   3.017   3.063   3.091   3.146   3.058   3.110   3.049   2.956   3.012   2.828   2.915   2.914   2.828   2.996   2.910   2.929   3.033   3.150   3.160   3.200   3.113   3.067
     9.57    3.078   3.159   3.088   3.020   2.955   2.871   2.802   2.745   2.754   2.781   2.779   2.973   2.981   3.099   3.137   3.104   2.949   3.077   3.016   3.179   3.050   2.860   2.692   2.798   2.855   2.782   2.700   2.956   3.040   3.129   3.169   3.221   3.356   3.269   3.205   3.126
     1.00    2.987   3.061   3.144   3.033   2.929   2.847   3.024   2.891   2.766   2.856   2.889   3.102   3.213   3.044   3.065   3.009   2.986   3.047   2.943   2.884   2.934   2.905   2.885   2.980   2.888   2.904   2.801   3.005   3.052   2.902   3.119   3.322   3.338   3.371   3.353   3.274

   Height   Standard deviation at grid points for the v component:
   301.00    2.997   2.997   2.997   2.997   2.997   2.997   2.997   2.997   2.997   2.997   2.997   2.997   2.997   2.997   2.997   2.997   2.997   2.997   2.997   2.997   2.997   2.997   2.997   2.997   2.997   2.997   2.997   2.997   2.997   2.997   2.997   2.997   2.997   2.997   2.997   2.997
   292.43    2.997   2.997   2.997   2.997   2.997   2.997   2.997   2.997   2.997   2.997   2.997   2.997   2.997   2.997   2.997   2.997   2.997   2.997   2.997   2.997   2.997   2.997   2.997   2.997   2.997   2.997   2.997   2.997   2.997   2.997   2.997   2.997   2.997   2.997   2.997   2.997
   283.86    2.997   2.997   2.997   2.997   2.997   2.997   2.997   2.997   2.997   2.997   2.997   2.997   2.997   2.997   2.997   2.997   2.997   2.997   2.997   2.997   2.997   2.997   2.997   2.997   2.997   2.997   2.997   2.997   2.997   2.997   2.997   2.997   2.997   2.997   2.997   2.997
   275.29    2.997   2.997   2.997   2.997   2.997   2.997   2.997   2.997   2.997   2.997   2.997   2.997   2.997   2.997   2.997   2.997   2.997   2.997   2.997   2.997   2.997   2.997   2.997   2.997   2.997   2.997   2.997   2.997   2.997   2.997   2.997   2.997   2.997   2.997   2.997   2.997
   266.71    2.997   2.997   2.997   2.997   2.997   2.997   2.997   2.997   2.997   2.997   2.997   2.997   2.997   2.997   2.997   2.997   2.997   2.997   2.997   2.997   2.997   2.997   2.997   2.997   2.997   2.997   2.997   2.997   2.997   2.997   2.997   2.997   2.997   2.997   2.997   2.997
   258.14    2.997   2.997   2.997   2.997   2.997   2.997   2.997   2.997   2.997   2.997   2.997   2.997   2.997   2.997   2.997   2.997   2.997   2.997   2.997   2.997   2.997   2.997   2.997   2.997   2.997   2.997   2.997   2.997   2.997   2.997   2.997   2.997   2.997   2.997   2.997   2.997
   249.57    2.997   2.997   2.997   2.997   2.997   2.997   2.997   2.997   2.997   2.997   2.997   2.997   2.997   2.997   2.997   2.997   2.997   2.997   2.997   2.997   2.997   2.997   2.997   2.997   2.997   2.997   2.997   2.997   2.997   2.997   2.997   2.997   2.997   2.997   2.997   2.997
   241.00    2.997   2.997   2.997   2.997   2.997   2.997   2.997   2.997   2.997   2.997   2.997   2.997   2.997   2.997   2.997   2.997   2.997   2.997   2.997   2.997   2.997   2.997   2.997   2.997   2.997   2.997   2.997   2.997   2.997   2.997   2.997   2.997   2.997   2.997   2.997   2.997
   232.43    2.997   2.997   2.997   2.997   2.997   2.997   2.997   2.997   2.997   2.997   2.997   2.997   2.997   2.997   2.997   2.997   2.997   2.997   2.997   2.997   2.997   2.997   2.997   2.997   2.997   2.997   2.997   2.997   2.997   2.997   2.997   2.997   2.997   2.997   2.997   2.997
   223.86    2.997   2.997   2.997   2.997   2.997   2.997   2.997   2.997   2.997   2.997   2.997   2.997   2.997   2.997   2.997   2.997   2.997   2.997   2.997   2.997   2.997   2.997   2.997   2.997   2.997   2.997   2.997   2.997   2.997   2.997   2.997   2.997   2.997   2.997   2.997   2.997
   215.29    2.997   2.997   2.997   2.997   2.997   2.997   2.997   2.997   2.997   2.997   2.997   2.997   2.997   2.997   2.997   2.997   2.997   2.997   2.997   2.997   2.997   2.997   2.997   2.997   2.997   2.997   2.997   2.997   2.997   2.997   2.997   2.997   2.997   2.997   2.997   2.997
   206.71    2.997   2.997   2.997   2.997   2.997   2.997   2.997   2.997   2.997   2.997   2.997   2.997   2.997   2.997   2.997   2.997   2.997   2.997   2.997   2.997   2.997   2.997   2.997   2.997   2.997   2.997   2.997   2.997   2.997   2.997   2.997   2.997   2.997   2.997   2.997   2.997
   198.14    2.997   2.997   2.997   2.997   2.997   2.997   2.997   2.997   2.997   2.997   2.997   2.997   2.997   2.997   2.997   2.997   2.997   2.997   2.997   2.997   2.997   2.997   2.997   2.997   2.997   2.997   2.997   2.997   2.997   2.997   2.997   2.997   2.997   2.997   2.997   2.997
   189.57    2.997   2.997   2.997   2.997   2.997   2.997   2.997   2.997   2.997   2.997   2.997   2.997   2.997   2.997   2.997   2.997   2.997   2.997   2.997   2.997   2.997   2.997   2.997   2.997   2.997   2.997   2.997   2.997   2.997   2.997   2.997   2.997   2.997   2.997   2.997   2.997
   181.00    2.997   2.997   2.997   2.997   2.997   2.997   2.997   2.997   2.997   2.997   2.997   2.997   2.997   2.997   2.997   2.997   2.997   2.997   2.997   2.997   2.997   2.997   2.997   2.997   2.997   2.997   2.997   2.997   2.997   2.997   2.997   2.997   2.997   2.997   2.997   2.997
   172.43    2.997   2.997   2.997   2.997   2.997   2.997   2.997   2.997   2.997   2.997   2.997   2.997   2.997   2.997   2.997   2.997   2.997   2.997   2.997   2.997   2.997   2.997   2.997   2.997   2.997   2.997   2.997   2.997   2.997   2.997   2.997   2.997   2.997   2.997   2.997   2.997
   163.86    2.997   2.997   2.997   2.997   2.997   2.997   2.997   2.997   2.997   2.997   2.997   2.997   2.997   2.997   2.997   2.997   2.997   2.997   2.997   2.997   2.997   2.997   2.997   2.997   2.997   2.997   2.997   2.997   2.997   2.997   2.997   2.997   2.997   2.997   2.997   2.997
   155.29    2.997   2.997   2.997   2.997   2.997   2.997   2.997   2.997   2.997   2.997   2.997   2.997   2.997   2.997   2.997   2.997   2.997   2.997   2.997   2.997   2.997   2.997   2.997   2.997   2.997   2.997   2.997   2.997   2.997   2.997   2.997   2.997   2.997   2.997   2.997   2.997
   146.71    2.997   2.997   2.997   2.997   2.997   2.997   2.997   2.997   2.997   2.997   2.997   2.997   2.997   2.997   2.997   2.997   2.997   2.997   2.997   2.997   2.997   2.997   2.997   2.997   2.997   2.997   2.997   2.997   2.997   2.997   2.997   2.997   2.997   2.997   2.997   2.997
   138.14    2.997   2.997   2.997   2.997   2.997   2.997   2.997   2.997   2.997   2.997   2.997   2.997   2.997   2.997   2.997   2.997   2.997   2.997   2.997   2.997   2.997   2.997   2.997   2.997   2.997   2.997   2.997   2.997   2.997   2.997   2.997   2.997   2.997   2.997   2.997   2.997
   129.57    2.997   2.997   2.997   2.997   2.997   2.997   2.997   2.997   2.997   2.997   2.997   2.997   2.997   2.997   2.997   2.997   2.997   2.997   2.997   2.997   2.997   2.997   2.997   2.997   2.997   2.997   2.997   2.997   2.997   2.997   2.997   2.997   2.997   2.997   2.997   2.997
   121.00    2.997   2.997   2.997   2.997   2.997   2.997   2.997   2.997   2.997   2.997   2.997   2.997   2.997   2.997   2.997   2.997   2.997   2.997   2.997   2.997   2.997   2.997   2.997   2.997   2.997   2.997   2.997   2.997   2.997   2.997   2.997   2.997   2.997   2.997   2.997   2.997
   112.43    2.997   2.997   2.997   2.997   2.997   2.997   2.997   2.997   2.997   2.997   2.997   2.997   2.997   2.997   2.997   2.997   2.997   2.997   2.997   2.997   2.997   2.997   2.997   2.997   2.997   2.997   2.997   2.997   2.997   2.997   2.997   2.997   2.997   2.997   2.997   2.997
   103.86    2.997   2.997   2.997   2.997   2.997   2.997   2.997   2.997   2.997   2.997   2.997   2.997   2.997   2.997   2.997   2.997   2.997   2.997   2.997   2.997   2.997   2.997   2.997   2.997   2.997   2.997   2.997   2.997   2.997   2.997   2.997   2.997   2.997   2.997   2.997   2.997
    95.29    2.997   2.997   2.997   2.997   2.997   2.997   2.997   2.997   2.997   2.997   2.997   2.997   2.997   2.997   2.997   2.997   2.997   2.997   2.997   2.997   2.997   2.997   2.997   2.997   2.997   2.997   2.997   2.997   2.997   2.997   2.997   2.997   2.997   2.997   2.997   2.997
    86.71    2.997   2.997   2.997   2.997   2.997   2.997   2.997   2.997   2.997   2.997   2.997   2.997   2.997   2.997   2.997   2.997   2.997   2.997   2.997   2.997   2.997   2.997   2.997   2.997   2.997   2.997   2.997   2.997   2.997   2.997   2.997   2.997   2.997   2.997   2.997   2.997
    78.14    2.997   2.997   2.997   2.997   2.997   2.997   2.997   2.997   2.997   2.997   2.997   2.997   2.997   2.997   2.997   2.997   2.997   2.997   2.997   2.997   2.997   2.997   2.997   2.997   2.997   2.997   2.997   2.997   2.997   2.997   2.997   2.997   2.997   2.997   2.997   2.997
    69.57    2.997   2.997   2.997   2.997   2.997   2.997   2.997   2.997   2.997   2.997   2.997   2.997   2.997   2.997   2.997   2.997   2.997   2.997   2.997   2.997   2.997   2.997   2.997   2.997   2.997   2.997   2.997   2.997   2.997   2.997   2.997   2.997   2.997   2.997   2.997   2.997
    61.00    2.997   2.997   2.997   2.997   2.997   2.997   2.997   2.997   2.997   2.997   2.997   2.997   2.997   2.997   2.997   2.997   2.997   2.997   2.997   2.997   2.997   2.997   2.997   2.997   2.997   2.997   2.997   2.997   2.997   2.997   2.997   2.997   2.997   2.997   2.997   2.997
    52.43    2.997   2.997   2.997   2.997   2.997   2.997   2.997   2.997   2.997   2.997   2.997   2.997   2.997   2.997   2.997   2.997   2.997   2.997   2.997   2.997   2.997   2.997   2.997   2.997   2.997   2.997   2.997   2.997   2.997   2.997   2.997   2.997   2.997   2.997   2.997   2.997
    43.86    2.997   2.997   2.997   2.997   2.997   2.997   2.997   2.997   2.997   2.997   2.997   2.997   2.997   2.997   2.997   2.997   2.997   2.997   2.997   2.997   2.997   2.997   2.997   2.997   2.997   2.997   2.997   2.997   2.997   2.997   2.997   2.997   2.997   2.997   2.997   2.997
    35.29    2.997   2.997   2.997   2.997   2.997   2.997   2.997   2.997   2.997   2.997   2.997   2.997   2.997   2.997   2.997   2.997   2.997   2.997   2.997   2.997   2.997   2.997   2.997   2.997   2.997   2.997   2.997   2.997   2.997   2.997   2.997   2.997   2.997   2.997   2.997   2.997
    26.71    2.997   2.997   2.997   2.997   2.997   2.997   2.997   2.997   2.997   2.997   2.997   2.997   2.997   2.997   2.997   2.997   2.997   2.997   2.997   2.997   2.997   2.997   2.997   2.997   2.997   2.997   2.997   2.997   2.997   2.997   2.997   2.997   2.997   2.997   2.997   2.997
    18.14    2.997   2.997   2.997   2.997   2.997   2.997   2.997   2.997   2.997   2.997   2.997   2.997   2.997   2.997   2.997   2.997   2.997   2.997   2.997   2.997   2.997   2.997   2.997   2.997   2.997   2.997   2.997   2.997   2.997   2.997   2.997   2.997   2.997   2.997   2.997   2.997
     9.57    2.997   2.997   2.997   2.997   2.997   2.997   2.997   2.997   2.997   2.997   2.997   2.997   2.997   2.997   2.997   2.997   2.997   2.997   2.997   2.997   2.997   2.997   2.997   2.997   2.997   2.997   2.997   2.997   2.997   2.997   2.997   2.997   2.997   2.997   2.997   2.997
     1.00    2.997   2.997   2.997   2.997   2.997   2.997   2.997   2.997   2.997   2.997   2.997   2.997   2.997   2.997   2.997   2.997   2.997   2.997   2.997   2.997   2.997   2.997   2.997   2.997   2.997   2.997   2.997   2.997   2.997   2.997   2.997   2.997   2.997   2.997   2.997   2.997

   Height   Standard deviation at grid points for the w component:
   301.00    2.997   2.997   2.997   2.997   2.997   2.997   2.997   2.997   2.997   2.997   2.997   2.997   2.997   2.997   2.997   2.997   2.997   2.997   2.997   2.997   2.997   2.997   2.997   2.997   2.997   2.997   2.997   2.997   2.997   2.997   2.997   2.997   2.997   2.997   2.997   2.997
   292.43    2.997   2.997   2.997   2.997   2.997   2.997   2.997   2.997   2.997   2.997   2.997   2.997   2.997   2.997   2.997   2.997   2.997   2.997   2.997   2.997   2.997   2.997   2.997   2.997   2.997   2.997   2.997   2.997   2.997   2.997   2.997   2.997   2.997   2.997   2.997   2.997
   283.86    2.997   2.997   2.997   2.997   2.997   2.997   2.997   2.997   2.997   2.997   2.997   2.997   2.997   2.997   2.997   2.997   2.997   2.997   2.997   2.997   2.997   2.997   2.997   2.997   2.997   2.997   2.997   2.997   2.997   2.997   2.997   2.997   2.997   2.997   2.997   2.997
   275.29    2.997   2.997   2.997   2.997   2.997   2.997   2.997   2.997   2.997   2.997   2.997   2.997   2.997   2.997   2.997   2.997   2.997   2.997   2.997   2.997   2.997   2.997   2.997   2.997   2.997   2.997   2.997   2.997   2.997   2.997   2.997   2.997   2.997   2.997   2.997   2.997
   266.71    2.997   2.997   2.997   2.997   2.997   2.997   2.997   2.997   2.997   2.997   2.997   2.997   2.997   2.997   2.997   2.997   2.997   2.997   2.997   2.997   2.997   2.997   2.997   2.997   2.997   2.997   2.997   2.997   2.997   2.997   2.997   2.997   2.997   2.997   2.997   2.997
   258.14    2.997   2.997   2.997   2.997   2.997   2.997   2.997   2.997   2.997   2.997   2.997   2.997   2.997   2.997   2.997   2.997   2.997   2.997   2.997   2.997   2.997   2.997   2.997   2.997   2.997   2.997   2.997   2.997   2.997   2.997   2.997   2.997   2.997   2.997   2.997   2.997
   249.57    2.997   2.997   2.997   2.997   2.997   2.997   2.997   2.997   2.997   2.997   2.997   2.997   2.997   2.997   2.997   2.997   2.997   2.997   2.997   2.997   2.997   2.997   2.997   2.997   2.997   2.997   2.997   2.997   2.997   2.997   2.997   2.997   2.997   2.997   2.997   2.997
   241.00    2.997   2.997   2.997   2.997   2.997   2.997   2.997   2.997   2.997   2.997   2.997   2.997   2.997   2.997   2.997   2.997   2.997   2.997   2.997   2.997   2.997   2.997   2.997   2.997   2.997   2.997   2.997   2.997   2.997   2.997   2.997   2.997   2.997   2.997   2.997   2.997
   232.43    2.997   2.997   2.997   2.997   2.997   2.997   2.997   2.997   2.997   2.997   2.997   2.997   2.997   2.997   2.997   2.997   2.997   2.997   2.997   2.997   2.997   2.997   2.997   2.997   2.997   2.997   2.997   2.997   2.997   2.997   2.997   2.997   2.997   2.997   2.997   2.997
   223.86    2.997   2.997   2.997   2.997   2.997   2.997   2.997   2.997   2.997   2.997   2.997   2.997   2.997   2.997   2.997   2.997   2.997   2.997   2.997   2.997   2.997   2.997   2.997   2.997   2.997   2.997   2.997   2.997   2.997   2.997   2.997   2.997   2.997   2.997   2.997   2.997
   215.29    2.997   2.997   2.997   2.997   2.997   2.997   2.997   2.997   2.997   2.997   2.997   2.997   2.997   2.997   2.997   2.997   2.997   2.997   2.997   2.997   2.997   2.997   2.997   2.997   2.997   2.997   2.997   2.997   2.997   2.997   2.997   2.997   2.997   2.997   2.997   2.997
   206.71    2.997   2.997   2.997   2.997   2.997   2.997   2.997   2.997   2.997   2.997   2.997   2.997   2.997   2.997   2.997   2.997   2.997   2.997   2.997   2.997   2.997   2.997   2.997   2.997   2.997   2.997   2.997   2.997   2.997   2.997   2.997   2.997   2.997   2.997   2.997   2.997
   198.14    2.997   2.997   2.997   2.997   2.997   2.997   2.997   2.997   2.997   2.997   2.997   2.997   2.997   2.997   2.997   2.997   2.997   2.997   2.997   2.997   2.997   2.997   2.997   2.997   2.997   2.997   2.997   2.997   2.997   2.997   2.997   2.997   2.997   2.997   2.997   2.997
   189.57    2.997   2.997   2.997   2.997   2.997   2.997   2.997   2.997   2.997   2.997   2.997   2.997   2.997   2.997   2.997   2.997   2.997   2.997   2.997   2.997   2.997   2.997   2.997   2.997   2.997   2.997   2.997   2.997   2.997   2.997   2.997   2.997   2.997   2.997   2.997   2.997
   181.00    2.997   2.997   2.997   2.997   2.997   2.997   2.997   2.997   2.997   2.997   2.997   2.997   2.997   2.997   2.997   2.997   2.997   2.997   2.997   2.997   2.997   2.997   2.997   2.997   2.997   2.997   2.997   2.997   2.997   2.997   2.997   2.997   2.997   2.997   2.997   2.997
   172.43    2.997   2.997   2.997   2.997   2.997   2.997   2.997   2.997   2.997   2.997   2.997   2.997   2.997   2.997   2.997   2.997   2.997   2.997   2.997   2.997   2.997   2.997   2.997   2.997   2.997   2.997   2.997   2.997   2.997   2.997   2.997   2.997   2.997   2.997   2.997   2.997
   163.86    2.997   2.997   2.997   2.997   2.997   2.997   2.997   2.997   2.997   2.997   2.997   2.997   2.997   2.997   2.997   2.997   2.997   2.997   2.997   2.997   2.997   2.997   2.997   2.997   2.997   2.997   2.997   2.997   2.997   2.997   2.997   2.997   2.997   2.997   2.997   2.997
   155.29    2.997   2.997   2.997   2.997   2.997   2.997   2.997   2.997   2.997   2.997   2.997   2.997   2.997   2.997   2.997   2.997   2.997   2.997   2.997   2.997   2.997   2.997   2.997   2.997   2.997   2.997   2.997   2.997   2.997   2.997   2.997   2.997   2.997   2.997   2.997   2.997
   146.71    2.997   2.997   2.997   2.997   2.997   2.997   2.997   2.997   2.997   2.997   2.997   2.997   2.997   2.997   2.997   2.997   2.997   2.997   2.997   2.997   2.997   2.997   2.997   2.997   2.997   2.997   2.997   2.997   2.997   2.997   2.997   2.997   2.997   2.997   2.997   2.997
   138.14    2.997   2.997   2.997   2.997   2.997   2.997   2.997   2.997   2.997   2.997   2.997   2.997   2.997   2.997   2.997   2.997   2.997   2.997   2.997   2.997   2.997   2.997   2.997   2.997   2.997   2.997   2.997   2.997   2.997   2.997   2.997   2.997   2.997   2.997   2.997   2.997
   129.57    2.997   2.997   2.997   2.997   2.997   2.997   2.997   2.997   2.997   2.997   2.997   2.997   2.997   2.997   2.997   2.997   2.997   2.997   2.997   2.997   2.997   2.997   2.997   2.997   2.997   2.997   2.997   2.997   2.997   2.997   2.997   2.997   2.997   2.997   2.997   2.997
   121.00    2.997   2.997   2.997   2.997   2.997   2.997   2.997   2.997   2.997   2.997   2.997   2.997   2.997   2.997   2.997   2.997   2.997   2.997   2.997   2.997   2.997   2.997   2.997   2.997   2.997   2.997   2.997   2.997   2.997   2.997   2.997   2.997   2.997   2.997   2.997   2.997
   112.43    2.997   2.997   2.997   2.997   2.997   2.997   2.997   2.997   2.997   2.997   2.997   2.997   2.997   2.997   2.997   2.997   2.997   2.997   2.997   2.997   2.997   2.997   2.997   2.997   2.997   2.997   2.997   2.997   2.997   2.997   2.997   2.997   2.997   2.997   2.997   2.997
   103.86    2.997   2.997   2.997   2.997   2.997   2.997   2.997   2.997   2.997   2.997   2.997   2.997   2.997   2.997   2.997   2.997   2.997   2.997   2.997   2.997   2.997   2.997   2.997   2.997   2.997   2.997   2.997   2.997   2.997   2.997   2.997   2.997   2.997   2.997   2.997   2.997
    95.29    2.997   2.997   2.997   2.997   2.997   2.997   2.997   2.997   2.997   2.997   2.997   2.997   2.997   2.997   2.997   2.997   2.997   2.997   2.997   2.997   2.997   2.997   2.997   2.997   2.997   2.997   2.997   2.997   2.997   2.997   2.997   2.997   2.997   2.997   2.997   2.997
    86.71    2.997   2.997   2.997   2.997   2.997   2.997   2.997   2.997   2.997   2.997   2.997   2.997   2.997   2.997   2.997   2.997   2.997   2.997   2.997   2.997   2.997   2.997   2.997   2.997   2.997   2.997   2.997   2.997   2.997   2.997   2.997   2.997   2.997   2.997   2.997   2.997
    78.14    2.997   2.997   2.997   2.997   2.997   2.997   2.997   2.997   2.997   2.997   2.997   2.997   2.997   2.997   2.997   2.997   2.997   2.997   2.997   2.997   2.997   2.997   2.997   2.997   2.997   2.997   2.997   2.997   2.997   2.997   2.997   2.997   2.997   2.997   2.997   2.997
    69.57    2.997   2.997   2.997   2.997   2.997   2.997   2.997   2.997   2.997   2.997   2.997   2.997   2.997   2.997   2.997   2.997   2.997   2.997   2.997   2.997   2.997   2.997   2.997   2.997   2.997   2.997   2.997   2.997   2.997   2.997   2.997   2.997   2.997   2.997   2.997   2.997
    61.00    2.997   2.997   2.997   2.997   2.997   2.997   2.997   2.997   2.997   2.997   2.997   2.997   2.997   2.997   2.997   2.997   2.997   2.997   2.997   2.997   2.997   2.997   2.997   2.997   2.997   2.997   2.997   2.997   2.997   2.997   2.997   2.997   2.997   2.997   2.997   2.997
    52.43    2.997   2.997   2.997   2.997   2.997   2.997   2.997   2.997   2.997   2.997   2.997   2.997   2.997   2.997   2.997   2.997   2.997   2.997   2.997   2.997   2.997   2.997   2.997   2.997   2.997   2.997   2.997   2.997   2.997   2.997   2.997   2.997   2.997   2.997   2.997   2.997
    43.86    2.997   2.997   2.997   2.997   2.997   2.997   2.997   2.997   2.997   2.997   2.997   2.997   2.997   2.997   2.997   2.997   2.997   2.997   2.997   2.997   2.997   2.997   2.997   2.997   2.997   2.997   2.997   2.997   2.997   2.997   2.997   2.997   2.997   2.997   2.997   2.997
    35.29    2.997   2.997   2.997   2.997   2.997   2.997   2.997   2.997   2.997   2.997   2.997   2.997   2.997   2.997   2.997   2.997   2.997   2.997   2.997   2.997   2.997   2.997   2.997   2.997   2.997   2.997   2.997   2.997   2.997   2.997   2.997   2.997   2.997   2.997   2.997   2.997
    26.71    2.997   2.997   2.997   2.997   2.997   2.997   2.997   2.997   2.997   2.997   2.997   2.997   2.997   2.997   2.997   2.997   2.997   2.997   2.997   2.997   2.997   2.997   2.997   2.997   2.997   2.997   2.997   2.997   2.997   2.997   2.997   2.997   2.997   2.997   2.997   2.997
    18.14    2.997   2.997   2.997   2.997   2.997   2.997   2.997   2.997   2.997   2.997   2.997   2.997   2.997   2.997   2.997   2.997   2.997   2.997   2.997   2.997   2.997   2.997   2.997   2.997   2.997   2.997   2.997   2.997   2.997   2.997   2.997   2.997   2.997   2.997   2.997   2.997
     9.57    2.997   2.997   2.997   2.997   2.997   2.997   2.997   2.997   2.997   2.997   2.997   2.997   2.997   2.997   2.997   2.997   2.997   2.997   2.997   2.997   2.997   2.997   2.997   2.997   2.997   2.997   2.997   2.997   2.997   2.997   2.997   2.997   2.997   2.997   2.997   2.997
     1.00    2.997   2.997   2.997   2.997   2.997   2.997   2.997   2.997   2.997   2.997   2.997   2.997   2.997   2.997   2.997   2.997   2.997   2.997   2.997   2.997   2.997   2.997   2.997   2.997   2.997   2.997   2.997   2.997   2.997   2.997   2.997   2.997   2.997   2.997   2.997   2.997

   Mean standard deviation across all grid points:
      u component:    2.929 m/s
      v component:    2.997 m/s
      w component:    2.997 m/s


U-component (X) statistics from the interpolated hub point:

   Mean =  17.9515 m/s
   TI   =  14.4246 %


Normalizing Parameters for Binary Data (approximate statistics):

   UBar  =  17.9527 m/s
   TI(u) =  16.6642 %
   TI(v) =  16.6941 %
   TI(w) =  16.6941 %

   Height Offset =   0.0000 m
   Grid Base     =   1.0000 m

Creating a PERIODIC output file.


Processing complete.  114.78 CPU seconds used.
