
This summary file was generated by TurbSim (v2.00.07a-bjj, 14-Jun-2016) on 03-Nov-2023 at 03:24:06.


Runtime Options:

      3801  Random seed #1
    RANLUX  Type of random number generator
         F  Output binary HH turbulence parameters?
         F  Output formatted turbulence parameters?
         F  Output AeroDyn HH files?
         F  Output AeroDyn FF files?
         T  Output BLADED FF files?
         F  Output tower data?
         F  Output formatted FF files?
         F  Output coherent turbulence time step file?
         T  Clockwise rotation when looking downwind?
 0 -  NONE  IEC turbulence models scaled to exact specified standard deviation


Turbine/Model Specifications:

        36  Vertical grid-point matrix dimension
        36  Horizontal grid-point matrix dimension
     0.100  Time step [seconds]
   660.000  Analysis time [seconds]
   660.000  Usable output time [seconds]
   151.000  Hub height [m]
   300.000  Grid height [m]
   300.000  Grid width [m]
     0.000  Vertical flow angle [degrees]
     0.000  Horizontal flow angle [degrees]


Meteorological Boundary Conditions:

    IECVKM  IEC von Karman spectral model
         1  IEC standard: IEC 61400-1 Ed. 3: 2005
         A  IEC turbulence characteristic
       NTM  IEC Normal Turbulence Model
       N/A  IEC Extreme Turbulence Model (ETM) "c" parameter [m/s]
       PL   Wind profile type
   153.000  Reference height [m]
    17.000  Reference wind speed [m/s]
       N/A  Jet height [m]
     0.200  Power law exponent
     0.030  Surface roughness length [m]


Non-IEC Meteorological Boundary Conditions:

       N/A  Site latitude [degrees]
       N/A  Gradient Richardson number
       N/A  Friction or shear velocity [m/s]
       N/A  Mixing layer depth [m]
       N/A  Mean hub u'w' Reynolds stress
       N/A  Mean hub u'v' Reynolds stress
       N/A  Mean hub v'w' Reynolds stress


Spatial Coherence Models:

       IEC  u-component coherence model
      NONE  v-component coherence model
      NONE  w-component coherence model
(   12.000, 0.353E-03)  u-component coherence parameters
                   N/A  v-component coherence parameters
                   N/A  w-component coherence parameters
       N/A  Coherence exponent


You have requested that the following file(s) be generated:

   G:\2023\OpenWECDV1.0.0_x64\BaseLIne\wind\WindL_V_17_seed_3801.wnd (AeroDyn/BLADED full-field wnd file)


Turbulence Simulation Scaling Parameter Summary:

   Turbulence model used                            =  IEC von Karman
   Turbulence characteristic                        =  A
   IEC turbulence type                              =  Normal Turbulence Model
   IEC standard                                     =  IEC 61400-1 Ed. 3: 2005
   Mean wind speed at hub height                    =   16.955 m/s
   Expected value of turbulence intensity at 15 m/s =   16.000%
   Characteristic value of standard deviation       =    2.931 m/s
   Turbulence scale                                 =   42.000 m
   Isotropic integral scale                         =  147.000 m
   Characteristic value of hub turbulence intensity =   17.284%
   Gradient Richardson number                       =    0.000

   Wind profile type                                =  Power law
   Power law exponent                               =    0.200
   Mean shear across rotor disk                     =    0.044 (m/s)/m
   Assumed rotor diameter                           =  300.000 m
   Surface roughness length                         =    0.030 m

   Nyquist frequency of turbulent wind field        =    5.000 Hz

   Number of time steps in the FFT                  =     6600
   Number of time steps output                      =     6600
   Number of points simulated                       =     1297


Mean Flow Angles:

   Vertical   =   0.0 degrees
   Horizontal =   0.0 degrees

Mean Wind Speed Profile:

   Height    Wind Speed   Horizontal Angle  Vertical Angle  U-comp (X)   V-comp (Y)   W-comp (Z)
     (m)        (m/s)         (degrees)       (degrees)       (m/s)        (m/s)        (m/s)   
   ------    ----------   ----------------  --------------  ----------   ----------   ----------
    301.0       19.46            0.00            0.00         19.46         0.00         0.00
    292.4       19.35            0.00            0.00         19.35         0.00         0.00
    283.9       19.24            0.00            0.00         19.24         0.00         0.00
    275.3       19.12            0.00            0.00         19.12         0.00         0.00
    266.7       19.00            0.00            0.00         19.00         0.00         0.00
    258.1       18.87            0.00            0.00         18.87         0.00         0.00
    249.6       18.75            0.00            0.00         18.75         0.00         0.00
    241.0       18.62            0.00            0.00         18.62         0.00         0.00
    232.4       18.48            0.00            0.00         18.48         0.00         0.00
    223.9       18.34            0.00            0.00         18.34         0.00         0.00
    215.3       18.20            0.00            0.00         18.20         0.00         0.00
    206.7       18.05            0.00            0.00         18.05         0.00         0.00
    198.1       17.90            0.00            0.00         17.90         0.00         0.00
    189.6       17.74            0.00            0.00         17.74         0.00         0.00
    181.0       17.58            0.00            0.00         17.58         0.00         0.00
    172.4       17.41            0.00            0.00         17.41         0.00         0.00
    163.9       17.23            0.00            0.00         17.23         0.00         0.00
    155.3       17.05            0.00            0.00         17.05         0.00         0.00
    151.0       16.96            0.00            0.00         16.96         0.00         0.00
    146.7       16.86            0.00            0.00         16.86         0.00         0.00
    138.1       16.66            0.00            0.00         16.66         0.00         0.00
    129.6       16.44            0.00            0.00         16.44         0.00         0.00
    121.0       16.22            0.00            0.00         16.22         0.00         0.00
    112.4       15.98            0.00            0.00         15.98         0.00         0.00
    103.9       15.73            0.00            0.00         15.73         0.00         0.00
     95.3       15.46            0.00            0.00         15.46         0.00         0.00
     86.7       15.18            0.00            0.00         15.18         0.00         0.00
     78.1       14.86            0.00            0.00         14.86         0.00         0.00
     69.6       14.52            0.00            0.00         14.52         0.00         0.00
     61.0       14.14            0.00            0.00         14.14         0.00         0.00
     52.4       13.72            0.00            0.00         13.72         0.00         0.00
     43.9       13.24            0.00            0.00         13.24         0.00         0.00
     35.3       12.68            0.00            0.00         12.68         0.00         0.00
     26.7       11.99            0.00            0.00         11.99         0.00         0.00
     18.1       11.10            0.00            0.00         11.10         0.00         0.00
      9.6        9.77            0.00            0.00          9.77         0.00         0.00
      1.0        6.22            0.00            0.00          6.22         0.00         0.00


Harvested Random Seeds after Generation of the Random Numbers:

    119307688 K 1
            0 K 2


Hub-Height Simulated Turbulence Statistical Summary:

   Type of Wind        Min (m/s)   Mean (m/s)    Max (m/s)  Sigma (m/s)       TI (%)
   ----------------    ---------   ----------    ---------  -----------       ------
   Longitudinal (u)         8.25        16.96        24.85        2.870       16.928
   Lateral (v)             -9.36        -0.00         9.84        2.879       16.982
   Vertical (w)            -8.69         0.00        10.70        2.879       16.982
   U component              8.25        16.96        24.85        2.870       16.928
   V component             -9.36        -0.00         9.84        2.879       16.982
   W component             -8.69         0.00        10.70        2.879       16.982
   Horizontal (U&V)         8.26        17.20        24.94        2.850       16.566
   Total                    8.47        17.44        25.52        2.830       16.223

                       Min Reynolds     Mean Reynolds    Max Reynolds    Correlation
   Product             Stress (m/s)^2   Stress (m/s)^2   Stress (m/s)^2  Coefficient
   ----------------    --------------   --------------   --------------  -----------
   u'w'                    -48.335            -0.680            47.766        -0.082
   u'v'                    -45.816            -0.753            40.888        -0.091
   v'w'                    -41.993            -0.077            55.050        -0.009


   Friction Velocity (Ustar)  =      0.825 m/s
   Maximum Instantaneous TKE  =     67.101 (m/s)^2
   Maximum Instantaneous CTKE =     37.882 (m/s)^2


Grid Point Variance Summary:

   Y-coord -150.00 -141.43 -132.86 -124.29 -115.71 -107.14  -98.57  -90.00  -81.43  -72.86  -64.29  -55.71  -47.14  -38.57  -30.00  -21.43  -12.86   -4.29    4.29   12.86   21.43   30.00   38.57   47.14   55.71   64.29   72.86   81.43   90.00   98.57  107.14  115.71  124.29  132.86  141.43  150.00

   Height   Standard deviation at grid points for the u component:
   301.00    2.706   2.732   2.706   2.830   2.884   2.979   2.978   2.865   2.642   2.603   2.702   2.648   2.646   2.773   2.789   2.691   2.691   2.750   2.665   2.678   2.603   2.599   2.619   2.661   2.578   2.654   2.744   2.671   2.739   2.813   2.767   2.696   2.806   2.959   2.866   2.782
   292.43    2.603   2.685   2.780   2.727   2.849   2.740   2.914   2.890   2.699   2.647   2.650   2.705   2.827   2.706   2.572   2.712   2.637   2.718   2.582   2.466   2.514   2.596   2.532   2.600   2.466   2.640   2.659   2.663   2.565   2.491   2.550   2.563   2.781   2.928   2.975   2.764
   283.86    2.802   2.644   2.847   2.882   2.718   2.713   2.815   2.645   2.662   2.623   2.593   2.598   2.525   2.636   2.520   2.627   2.494   2.559   2.534   2.473   2.534   2.562   2.556   2.479   2.547   2.601   2.570   2.577   2.571   2.373   2.509   2.648   2.871   2.947   3.006   2.838
   275.29    2.902   2.883   2.933   2.902   2.885   3.011   2.939   2.773   2.589   2.737   2.725   2.633   2.541   2.523   2.714   2.577   2.400   2.474   2.487   2.444   2.559   2.646   2.545   2.514   2.643   2.741   2.710   2.587   2.634   2.461   2.482   2.747   2.724   3.036   2.907   2.773
   266.71    3.084   3.031   3.203   3.103   2.933   3.154   3.118   3.018   2.918   2.780   2.721   2.674   2.604   2.557   2.673   2.524   2.553   2.522   2.507   2.552   2.636   2.477   2.520   2.544   2.643   2.669   2.637   2.598   2.710   2.523   2.509   2.579   2.844   3.019   2.876   2.725
   258.14    3.093   3.106   3.142   3.131   3.033   3.026   3.025   2.947   2.881   2.781   2.559   2.804   2.761   2.709   2.551   2.706   2.694   2.554   2.584   2.487   2.459   2.555   2.540   2.647   2.648   2.511   2.499   2.521   2.555   2.694   2.730   2.696   2.816   2.851   2.741   2.814
   249.57    3.172   3.133   3.145   3.027   3.107   3.133   2.817   2.863   2.794   2.752   2.532   2.674   2.814   2.521   2.471   2.511   2.612   2.539   2.483   2.528   2.409   2.554   2.659   2.541   2.506   2.524   2.443   2.634   2.561   2.688   2.792   2.812   2.822   2.828   2.872   2.837
   241.00    3.122   3.080   3.143   2.932   3.064   3.118   2.850   2.689   2.667   2.718   2.842   2.810   2.901   2.728   2.588   2.735   2.708   2.623   2.491   2.421   2.509   2.510   2.462   2.563   2.447   2.614   2.528   2.510   2.610   2.635   2.741   2.648   2.709   2.768   2.718   2.701
   232.43    3.245   3.032   3.122   3.039   2.950   3.105   2.987   2.648   2.739   2.817   2.898   2.874   2.915   2.737   2.736   2.696   2.802   2.759   2.581   2.481   2.607   2.432   2.413   2.569   2.462   2.647   2.630   2.601   2.509   2.594   2.637   2.592   2.662   2.609   2.635   2.595
   223.86    3.115   3.077   3.066   3.052   2.855   3.019   2.981   2.784   2.799   2.977   2.984   2.847   2.771   2.766   2.689   2.762   2.789   2.750   2.527   2.412   2.500   2.523   2.430   2.502   2.468   2.421   2.480   2.637   2.586   2.715   2.661   2.697   2.670   2.619   2.642   2.633
   215.29    3.124   3.201   2.919   2.991   3.092   2.808   2.895   3.016   2.990   3.084   3.141   2.910   2.872   2.716   2.760   2.722   2.763   2.825   2.483   2.410   2.431   2.359   2.336   2.386   2.379   2.539   2.506   2.627   2.757   2.830   2.804   2.660   2.766   2.465   2.505   2.571
   206.71    3.118   2.939   2.821   2.847   2.926   2.998   2.939   2.818   2.982   3.137   3.036   2.901   2.872   2.811   2.655   2.535   2.857   2.758   2.527   2.392   2.344   2.384   2.335   2.448   2.407   2.684   2.650   2.675   2.821   2.782   2.665   2.780   2.595   2.564   2.587   2.498
   198.14    2.861   2.804   2.899   2.912   2.785   2.983   2.911   2.809   2.853   3.002   3.118   2.986   2.959   2.847   2.802   2.759   3.010   2.868   2.645   2.535   2.462   2.425   2.274   2.420   2.504   2.573   2.754   2.890   2.778   2.765   2.713   2.520   2.685   2.688   2.620   2.663
   189.57    2.745   2.628   2.862   2.919   2.939   3.036   2.849   2.655   2.785   2.957   2.920   2.917   3.168   3.178   3.056   2.863   2.976   2.752   2.796   2.599   2.495   2.557   2.317   2.418   2.533   2.783   2.738   2.811   2.693   2.774   2.812   2.766   2.805   2.880   2.822   2.678
   181.00    2.716   2.747   2.807   2.788   2.938   3.013   2.852   2.798   2.810   2.892   2.931   3.193   3.212   3.167   3.033   3.030   2.787   2.657   2.707   2.460   2.505   2.547   2.580   2.629   2.661   2.603   2.594   2.772   2.719   2.688   3.013   2.926   2.716   2.778   2.666   2.705
   172.43    2.776   2.787   2.763   2.707   2.789   2.881   3.004   2.851   3.060   3.049   3.108   3.061   3.152   3.140   3.142   2.947   2.793   2.666   2.748   2.531   2.511   2.479   2.348   2.534   2.561   2.577   2.738   2.753   2.680   2.831   2.871   2.912   2.623   2.703   2.746   2.808
   163.86    2.793   2.651   2.639   2.806   2.843   2.848   2.902   2.929   3.131   3.006   3.002   3.068   3.026   2.971   3.143   3.090   2.852   2.720   2.705   2.763   2.674   2.573   2.498   2.444   2.576   2.615   2.723   2.688   2.884   2.931   2.984   2.887   2.833   2.663   2.798   2.745
   155.29    2.833   2.800   2.638   2.785   2.807   2.948   2.906   2.976   3.131   3.121   3.190   3.002   2.924   2.955   3.008   3.043   2.830   2.909   2.796   2.848   2.689   2.784   2.701   2.492   2.655   2.807   2.741   2.908   3.013   2.855   3.003   2.873   2.793   2.699   2.677   2.706
   146.71    2.810   2.790   2.858   2.928   2.772   2.838   2.806   2.722   2.823   2.893   2.953   2.822   2.764   2.885   2.840   2.957   3.077   3.035   2.952   2.822   2.942   2.805   2.824   2.827   2.848   2.903   2.877   3.009   3.084   2.964   2.813   2.768   2.847   2.748   2.790   2.525
   138.14    2.853   2.867   2.924   2.989   2.771   2.904   2.907   2.662   2.695   2.883   2.824   2.783   2.787   2.783   2.941   3.038   3.201   3.105   2.985   2.868   2.934   2.873   2.978   2.929   2.872   2.967   3.026   2.933   3.017   3.144   3.109   2.907   2.891   2.744   2.904   2.930
   129.57    2.958   2.906   2.899   2.906   2.840   2.843   2.934   2.867   2.711   2.821   2.889   2.778   2.681   2.769   2.792   2.858   3.103   3.069   3.038   2.878   2.936   3.001   3.000   2.994   2.764   2.959   2.984   2.818   2.923   3.067   3.097   3.005   2.876   2.687   2.875   3.115
   121.00    2.961   3.064   2.948   2.882   2.835   2.954   2.893   2.787   2.691   2.680   2.753   2.758   2.562   2.795   2.912   3.071   2.991   3.064   2.977   2.961   2.879   2.879   3.000   2.963   2.841   3.064   2.879   2.811   2.980   3.069   3.125   2.957   2.777   2.952   2.953   3.108
   112.43    2.926   2.971   2.982   2.763   2.866   3.044   2.927   2.877   2.819   2.629   2.756   2.760   2.690   2.863   2.791   3.037   2.975   2.918   2.973   2.856   2.847   2.745   2.772   2.782   2.927   3.025   3.008   3.026   2.987   3.140   3.139   3.048   2.907   2.917   3.043   2.897
   103.86    2.995   3.034   2.864   2.706   2.942   3.126   2.983   2.765   2.795   2.735   2.792   2.761   2.680   2.998   3.023   3.049   2.996   3.098   3.133   2.951   2.915   2.794   2.701   2.911   3.146   3.024   3.112   3.109   3.025   3.082   2.943   2.985   2.677   2.959   2.912   2.922
    95.29    2.934   3.139   2.789   2.967   2.970   2.894   2.951   2.984   2.983   2.869   2.958   2.756   2.966   3.033   2.945   3.053   3.112   3.242   3.154   3.040   2.928   2.842   2.906   2.946   2.921   2.968   3.055   3.105   2.944   2.959   2.866   2.843   2.789   2.917   2.744   2.942
    86.71    2.961   2.921   2.980   2.946   3.040   2.970   3.108   3.048   2.804   2.862   2.903   2.842   2.852   3.126   3.063   3.108   3.246   3.166   3.282   3.113   2.903   2.903   2.812   3.176   2.975   2.928   2.948   3.020   2.893   2.785   2.769   2.749   2.749   2.772   2.784   2.741
    78.14    2.776   2.730   2.949   2.931   3.011   2.907   2.928   2.997   2.971   2.890   2.792   2.886   2.982   3.166   3.312   3.285   3.330   3.272   3.250   3.106   2.924   2.916   2.847   3.067   3.016   3.046   3.044   3.141   2.923   3.010   2.987   2.763   2.822   2.797   2.737   2.795
    69.57    2.791   2.925   3.002   2.897   3.049   2.927   2.978   2.931   2.924   2.847   2.661   2.837   3.183   3.191   3.352   3.413   3.327   3.165   3.168   3.163   3.034   3.008   2.894   2.987   3.035   3.074   3.071   3.104   3.147   2.960   2.792   2.696   2.874   2.769   2.797   2.758
    61.00    2.756   2.952   2.896   2.785   2.775   2.876   2.980   2.908   2.715   2.754   2.885   3.022   3.101   3.110   3.373   3.457   3.250   3.279   3.488   3.269   3.066   2.955   2.812   2.924   3.011   3.077   3.002   3.213   3.110   3.085   3.082   2.971   2.849   2.811   2.878   3.036
    52.43    2.787   2.881   2.664   2.620   2.670   2.818   3.002   2.858   2.880   2.893   3.033   3.007   3.071   3.191   3.365   3.364   3.236   3.309   3.313   3.120   2.873   3.036   2.856   2.711   2.845   2.843   2.795   3.119   3.183   3.231   3.130   3.001   3.001   2.948   2.995   3.009
    43.86    2.829   2.858   2.724   2.676   2.657   2.731   3.028   2.986   2.947   3.038   3.026   3.214   3.120   3.270   3.327   3.208   3.273   3.116   3.141   2.972   2.726   2.890   2.803   2.830   2.826   2.964   2.870   2.969   2.966   3.143   3.218   3.111   2.982   3.057   3.019   2.910
    35.29    2.893   2.812   2.693   2.731   2.663   2.815   3.004   2.997   3.042   2.991   3.204   3.153   3.250   3.433   3.487   3.414   3.372   3.194   3.220   3.081   2.973   2.842   2.739   2.681   2.757   3.040   2.882   3.070   3.000   3.155   3.175   3.102   3.050   3.130   3.018   2.945
    26.71    2.976   2.816   2.681   2.794   2.737   2.683   2.798   2.855   2.895   3.067   3.156   3.249   3.434   3.317   3.427   3.487   3.437   3.268   3.059   3.186   3.006   2.955   2.928   2.897   2.885   2.935   2.796   2.959   2.979   3.045   3.065   3.113   3.191   3.110   2.988   2.942
    18.14    2.967   2.722   2.847   2.825   2.798   2.852   2.870   2.786   2.980   3.032   3.130   3.161   3.322   3.256   3.304   3.287   3.387   3.426   3.223   3.361   3.188   2.896   2.851   2.807   2.792   2.734   2.736   2.895   3.004   2.903   3.046   2.940   3.001   3.049   3.137   2.995
     9.57    2.812   2.658   2.755   2.836   2.989   2.959   2.735   2.885   2.862   2.905   3.052   3.098   3.157   3.114   3.202   3.159   3.273   3.419   3.413   3.328   3.146   2.900   2.870   2.723   2.860   2.690   2.744   2.973   3.112   3.039   2.947   2.946   3.062   2.919   3.112   3.010
     1.00    2.869   2.634   2.806   2.772   2.752   2.888   2.907   2.717   2.839   2.850   3.038   3.123   3.010   3.009   3.141   3.135   3.225   3.431   3.274   3.236   3.129   2.838   2.850   2.819   2.742   2.749   2.666   2.797   3.072   3.022   3.002   2.989   2.713   3.050   2.988   2.996

   Height   Standard deviation at grid points for the v component:
   301.00    2.879   2.879   2.879   2.879   2.879   2.879   2.879   2.879   2.879   2.879   2.879   2.879   2.879   2.879   2.879   2.879   2.879   2.879   2.879   2.879   2.879   2.879   2.879   2.879   2.879   2.879   2.879   2.879   2.879   2.879   2.879   2.879   2.879   2.879   2.879   2.879
   292.43    2.879   2.879   2.879   2.879   2.879   2.879   2.879   2.879   2.879   2.879   2.879   2.879   2.879   2.879   2.879   2.879   2.879   2.879   2.879   2.879   2.879   2.879   2.879   2.879   2.879   2.879   2.879   2.879   2.879   2.879   2.879   2.879   2.879   2.879   2.879   2.879
   283.86    2.879   2.879   2.879   2.879   2.879   2.879   2.879   2.879   2.879   2.879   2.879   2.879   2.879   2.879   2.879   2.879   2.879   2.879   2.879   2.879   2.879   2.879   2.879   2.879   2.879   2.879   2.879   2.879   2.879   2.879   2.879   2.879   2.879   2.879   2.879   2.879
   275.29    2.879   2.879   2.879   2.879   2.879   2.879   2.879   2.879   2.879   2.879   2.879   2.879   2.879   2.879   2.879   2.879   2.879   2.879   2.879   2.879   2.879   2.879   2.879   2.879   2.879   2.879   2.879   2.879   2.879   2.879   2.879   2.879   2.879   2.879   2.879   2.879
   266.71    2.879   2.879   2.879   2.879   2.879   2.879   2.879   2.879   2.879   2.879   2.879   2.879   2.879   2.879   2.879   2.879   2.879   2.879   2.879   2.879   2.879   2.879   2.879   2.879   2.879   2.879   2.879   2.879   2.879   2.879   2.879   2.879   2.879   2.879   2.879   2.879
   258.14    2.879   2.879   2.879   2.879   2.879   2.879   2.879   2.879   2.879   2.879   2.879   2.879   2.879   2.879   2.879   2.879   2.879   2.879   2.879   2.879   2.879   2.879   2.879   2.879   2.879   2.879   2.879   2.879   2.879   2.879   2.879   2.879   2.879   2.879   2.879   2.879
   249.57    2.879   2.879   2.879   2.879   2.879   2.879   2.879   2.879   2.879   2.879   2.879   2.879   2.879   2.879   2.879   2.879   2.879   2.879   2.879   2.879   2.879   2.879   2.879   2.879   2.879   2.879   2.879   2.879   2.879   2.879   2.879   2.879   2.879   2.879   2.879   2.879
   241.00    2.879   2.879   2.879   2.879   2.879   2.879   2.879   2.879   2.879   2.879   2.879   2.879   2.879   2.879   2.879   2.879   2.879   2.879   2.879   2.879   2.879   2.879   2.879   2.879   2.879   2.879   2.879   2.879   2.879   2.879   2.879   2.879   2.879   2.879   2.879   2.879
   232.43    2.879   2.879   2.879   2.879   2.879   2.879   2.879   2.879   2.879   2.879   2.879   2.879   2.879   2.879   2.879   2.879   2.879   2.879   2.879   2.879   2.879   2.879   2.879   2.879   2.879   2.879   2.879   2.879   2.879   2.879   2.879   2.879   2.879   2.879   2.879   2.879
   223.86    2.879   2.879   2.879   2.879   2.879   2.879   2.879   2.879   2.879   2.879   2.879   2.879   2.879   2.879   2.879   2.879   2.879   2.879   2.879   2.879   2.879   2.879   2.879   2.879   2.879   2.879   2.879   2.879   2.879   2.879   2.879   2.879   2.879   2.879   2.879   2.879
   215.29    2.879   2.879   2.879   2.879   2.879   2.879   2.879   2.879   2.879   2.879   2.879   2.879   2.879   2.879   2.879   2.879   2.879   2.879   2.879   2.879   2.879   2.879   2.879   2.879   2.879   2.879   2.879   2.879   2.879   2.879   2.879   2.879   2.879   2.879   2.879   2.879
   206.71    2.879   2.879   2.879   2.879   2.879   2.879   2.879   2.879   2.879   2.879   2.879   2.879   2.879   2.879   2.879   2.879   2.879   2.879   2.879   2.879   2.879   2.879   2.879   2.879   2.879   2.879   2.879   2.879   2.879   2.879   2.879   2.879   2.879   2.879   2.879   2.879
   198.14    2.879   2.879   2.879   2.879   2.879   2.879   2.879   2.879   2.879   2.879   2.879   2.879   2.879   2.879   2.879   2.879   2.879   2.879   2.879   2.879   2.879   2.879   2.879   2.879   2.879   2.879   2.879   2.879   2.879   2.879   2.879   2.879   2.879   2.879   2.879   2.879
   189.57    2.879   2.879   2.879   2.879   2.879   2.879   2.879   2.879   2.879   2.879   2.879   2.879   2.879   2.879   2.879   2.879   2.879   2.879   2.879   2.879   2.879   2.879   2.879   2.879   2.879   2.879   2.879   2.879   2.879   2.879   2.879   2.879   2.879   2.879   2.879   2.879
   181.00    2.879   2.879   2.879   2.879   2.879   2.879   2.879   2.879   2.879   2.879   2.879   2.879   2.879   2.879   2.879   2.879   2.879   2.879   2.879   2.879   2.879   2.879   2.879   2.879   2.879   2.879   2.879   2.879   2.879   2.879   2.879   2.879   2.879   2.879   2.879   2.879
   172.43    2.879   2.879   2.879   2.879   2.879   2.879   2.879   2.879   2.879   2.879   2.879   2.879   2.879   2.879   2.879   2.879   2.879   2.879   2.879   2.879   2.879   2.879   2.879   2.879   2.879   2.879   2.879   2.879   2.879   2.879   2.879   2.879   2.879   2.879   2.879   2.879
   163.86    2.879   2.879   2.879   2.879   2.879   2.879   2.879   2.879   2.879   2.879   2.879   2.879   2.879   2.879   2.879   2.879   2.879   2.879   2.879   2.879   2.879   2.879   2.879   2.879   2.879   2.879   2.879   2.879   2.879   2.879   2.879   2.879   2.879   2.879   2.879   2.879
   155.29    2.879   2.879   2.879   2.879   2.879   2.879   2.879   2.879   2.879   2.879   2.879   2.879   2.879   2.879   2.879   2.879   2.879   2.879   2.879   2.879   2.879   2.879   2.879   2.879   2.879   2.879   2.879   2.879   2.879   2.879   2.879   2.879   2.879   2.879   2.879   2.879
   146.71    2.879   2.879   2.879   2.879   2.879   2.879   2.879   2.879   2.879   2.879   2.879   2.879   2.879   2.879   2.879   2.879   2.879   2.879   2.879   2.879   2.879   2.879   2.879   2.879   2.879   2.879   2.879   2.879   2.879   2.879   2.879   2.879   2.879   2.879   2.879   2.879
   138.14    2.879   2.879   2.879   2.879   2.879   2.879   2.879   2.879   2.879   2.879   2.879   2.879   2.879   2.879   2.879   2.879   2.879   2.879   2.879   2.879   2.879   2.879   2.879   2.879   2.879   2.879   2.879   2.879   2.879   2.879   2.879   2.879   2.879   2.879   2.879   2.879
   129.57    2.879   2.879   2.879   2.879   2.879   2.879   2.879   2.879   2.879   2.879   2.879   2.879   2.879   2.879   2.879   2.879   2.879   2.879   2.879   2.879   2.879   2.879   2.879   2.879   2.879   2.879   2.879   2.879   2.879   2.879   2.879   2.879   2.879   2.879   2.879   2.879
   121.00    2.879   2.879   2.879   2.879   2.879   2.879   2.879   2.879   2.879   2.879   2.879   2.879   2.879   2.879   2.879   2.879   2.879   2.879   2.879   2.879   2.879   2.879   2.879   2.879   2.879   2.879   2.879   2.879   2.879   2.879   2.879   2.879   2.879   2.879   2.879   2.879
   112.43    2.879   2.879   2.879   2.879   2.879   2.879   2.879   2.879   2.879   2.879   2.879   2.879   2.879   2.879   2.879   2.879   2.879   2.879   2.879   2.879   2.879   2.879   2.879   2.879   2.879   2.879   2.879   2.879   2.879   2.879   2.879   2.879   2.879   2.879   2.879   2.879
   103.86    2.879   2.879   2.879   2.879   2.879   2.879   2.879   2.879   2.879   2.879   2.879   2.879   2.879   2.879   2.879   2.879   2.879   2.879   2.879   2.879   2.879   2.879   2.879   2.879   2.879   2.879   2.879   2.879   2.879   2.879   2.879   2.879   2.879   2.879   2.879   2.879
    95.29    2.879   2.879   2.879   2.879   2.879   2.879   2.879   2.879   2.879   2.879   2.879   2.879   2.879   2.879   2.879   2.879   2.879   2.879   2.879   2.879   2.879   2.879   2.879   2.879   2.879   2.879   2.879   2.879   2.879   2.879   2.879   2.879   2.879   2.879   2.879   2.879
    86.71    2.879   2.879   2.879   2.879   2.879   2.879   2.879   2.879   2.879   2.879   2.879   2.879   2.879   2.879   2.879   2.879   2.879   2.879   2.879   2.879   2.879   2.879   2.879   2.879   2.879   2.879   2.879   2.879   2.879   2.879   2.879   2.879   2.879   2.879   2.879   2.879
    78.14    2.879   2.879   2.879   2.879   2.879   2.879   2.879   2.879   2.879   2.879   2.879   2.879   2.879   2.879   2.879   2.879   2.879   2.879   2.879   2.879   2.879   2.879   2.879   2.879   2.879   2.879   2.879   2.879   2.879   2.879   2.879   2.879   2.879   2.879   2.879   2.879
    69.57    2.879   2.879   2.879   2.879   2.879   2.879   2.879   2.879   2.879   2.879   2.879   2.879   2.879   2.879   2.879   2.879   2.879   2.879   2.879   2.879   2.879   2.879   2.879   2.879   2.879   2.879   2.879   2.879   2.879   2.879   2.879   2.879   2.879   2.879   2.879   2.879
    61.00    2.879   2.879   2.879   2.879   2.879   2.879   2.879   2.879   2.879   2.879   2.879   2.879   2.879   2.879   2.879   2.879   2.879   2.879   2.879   2.879   2.879   2.879   2.879   2.879   2.879   2.879   2.879   2.879   2.879   2.879   2.879   2.879   2.879   2.879   2.879   2.879
    52.43    2.879   2.879   2.879   2.879   2.879   2.879   2.879   2.879   2.879   2.879   2.879   2.879   2.879   2.879   2.879   2.879   2.879   2.879   2.879   2.879   2.879   2.879   2.879   2.879   2.879   2.879   2.879   2.879   2.879   2.879   2.879   2.879   2.879   2.879   2.879   2.879
    43.86    2.879   2.879   2.879   2.879   2.879   2.879   2.879   2.879   2.879   2.879   2.879   2.879   2.879   2.879   2.879   2.879   2.879   2.879   2.879   2.879   2.879   2.879   2.879   2.879   2.879   2.879   2.879   2.879   2.879   2.879   2.879   2.879   2.879   2.879   2.879   2.879
    35.29    2.879   2.879   2.879   2.879   2.879   2.879   2.879   2.879   2.879   2.879   2.879   2.879   2.879   2.879   2.879   2.879   2.879   2.879   2.879   2.879   2.879   2.879   2.879   2.879   2.879   2.879   2.879   2.879   2.879   2.879   2.879   2.879   2.879   2.879   2.879   2.879
    26.71    2.879   2.879   2.879   2.879   2.879   2.879   2.879   2.879   2.879   2.879   2.879   2.879   2.879   2.879   2.879   2.879   2.879   2.879   2.879   2.879   2.879   2.879   2.879   2.879   2.879   2.879   2.879   2.879   2.879   2.879   2.879   2.879   2.879   2.879   2.879   2.879
    18.14    2.879   2.879   2.879   2.879   2.879   2.879   2.879   2.879   2.879   2.879   2.879   2.879   2.879   2.879   2.879   2.879   2.879   2.879   2.879   2.879   2.879   2.879   2.879   2.879   2.879   2.879   2.879   2.879   2.879   2.879   2.879   2.879   2.879   2.879   2.879   2.879
     9.57    2.879   2.879   2.879   2.879   2.879   2.879   2.879   2.879   2.879   2.879   2.879   2.879   2.879   2.879   2.879   2.879   2.879   2.879   2.879   2.879   2.879   2.879   2.879   2.879   2.879   2.879   2.879   2.879   2.879   2.879   2.879   2.879   2.879   2.879   2.879   2.879
     1.00    2.879   2.879   2.879   2.879   2.879   2.879   2.879   2.879   2.879   2.879   2.879   2.879   2.879   2.879   2.879   2.879   2.879   2.879   2.879   2.879   2.879   2.879   2.879   2.879   2.879   2.879   2.879   2.879   2.879   2.879   2.879   2.879   2.879   2.879   2.879   2.879

   Height   Standard deviation at grid points for the w component:
   301.00    2.879   2.879   2.879   2.879   2.879   2.879   2.879   2.879   2.879   2.879   2.879   2.879   2.879   2.879   2.879   2.879   2.879   2.879   2.879   2.879   2.879   2.879   2.879   2.879   2.879   2.879   2.879   2.879   2.879   2.879   2.879   2.879   2.879   2.879   2.879   2.879
   292.43    2.879   2.879   2.879   2.879   2.879   2.879   2.879   2.879   2.879   2.879   2.879   2.879   2.879   2.879   2.879   2.879   2.879   2.879   2.879   2.879   2.879   2.879   2.879   2.879   2.879   2.879   2.879   2.879   2.879   2.879   2.879   2.879   2.879   2.879   2.879   2.879
   283.86    2.879   2.879   2.879   2.879   2.879   2.879   2.879   2.879   2.879   2.879   2.879   2.879   2.879   2.879   2.879   2.879   2.879   2.879   2.879   2.879   2.879   2.879   2.879   2.879   2.879   2.879   2.879   2.879   2.879   2.879   2.879   2.879   2.879   2.879   2.879   2.879
   275.29    2.879   2.879   2.879   2.879   2.879   2.879   2.879   2.879   2.879   2.879   2.879   2.879   2.879   2.879   2.879   2.879   2.879   2.879   2.879   2.879   2.879   2.879   2.879   2.879   2.879   2.879   2.879   2.879   2.879   2.879   2.879   2.879   2.879   2.879   2.879   2.879
   266.71    2.879   2.879   2.879   2.879   2.879   2.879   2.879   2.879   2.879   2.879   2.879   2.879   2.879   2.879   2.879   2.879   2.879   2.879   2.879   2.879   2.879   2.879   2.879   2.879   2.879   2.879   2.879   2.879   2.879   2.879   2.879   2.879   2.879   2.879   2.879   2.879
   258.14    2.879   2.879   2.879   2.879   2.879   2.879   2.879   2.879   2.879   2.879   2.879   2.879   2.879   2.879   2.879   2.879   2.879   2.879   2.879   2.879   2.879   2.879   2.879   2.879   2.879   2.879   2.879   2.879   2.879   2.879   2.879   2.879   2.879   2.879   2.879   2.879
   249.57    2.879   2.879   2.879   2.879   2.879   2.879   2.879   2.879   2.879   2.879   2.879   2.879   2.879   2.879   2.879   2.879   2.879   2.879   2.879   2.879   2.879   2.879   2.879   2.879   2.879   2.879   2.879   2.879   2.879   2.879   2.879   2.879   2.879   2.879   2.879   2.879
   241.00    2.879   2.879   2.879   2.879   2.879   2.879   2.879   2.879   2.879   2.879   2.879   2.879   2.879   2.879   2.879   2.879   2.879   2.879   2.879   2.879   2.879   2.879   2.879   2.879   2.879   2.879   2.879   2.879   2.879   2.879   2.879   2.879   2.879   2.879   2.879   2.879
   232.43    2.879   2.879   2.879   2.879   2.879   2.879   2.879   2.879   2.879   2.879   2.879   2.879   2.879   2.879   2.879   2.879   2.879   2.879   2.879   2.879   2.879   2.879   2.879   2.879   2.879   2.879   2.879   2.879   2.879   2.879   2.879   2.879   2.879   2.879   2.879   2.879
   223.86    2.879   2.879   2.879   2.879   2.879   2.879   2.879   2.879   2.879   2.879   2.879   2.879   2.879   2.879   2.879   2.879   2.879   2.879   2.879   2.879   2.879   2.879   2.879   2.879   2.879   2.879   2.879   2.879   2.879   2.879   2.879   2.879   2.879   2.879   2.879   2.879
   215.29    2.879   2.879   2.879   2.879   2.879   2.879   2.879   2.879   2.879   2.879   2.879   2.879   2.879   2.879   2.879   2.879   2.879   2.879   2.879   2.879   2.879   2.879   2.879   2.879   2.879   2.879   2.879   2.879   2.879   2.879   2.879   2.879   2.879   2.879   2.879   2.879
   206.71    2.879   2.879   2.879   2.879   2.879   2.879   2.879   2.879   2.879   2.879   2.879   2.879   2.879   2.879   2.879   2.879   2.879   2.879   2.879   2.879   2.879   2.879   2.879   2.879   2.879   2.879   2.879   2.879   2.879   2.879   2.879   2.879   2.879   2.879   2.879   2.879
   198.14    2.879   2.879   2.879   2.879   2.879   2.879   2.879   2.879   2.879   2.879   2.879   2.879   2.879   2.879   2.879   2.879   2.879   2.879   2.879   2.879   2.879   2.879   2.879   2.879   2.879   2.879   2.879   2.879   2.879   2.879   2.879   2.879   2.879   2.879   2.879   2.879
   189.57    2.879   2.879   2.879   2.879   2.879   2.879   2.879   2.879   2.879   2.879   2.879   2.879   2.879   2.879   2.879   2.879   2.879   2.879   2.879   2.879   2.879   2.879   2.879   2.879   2.879   2.879   2.879   2.879   2.879   2.879   2.879   2.879   2.879   2.879   2.879   2.879
   181.00    2.879   2.879   2.879   2.879   2.879   2.879   2.879   2.879   2.879   2.879   2.879   2.879   2.879   2.879   2.879   2.879   2.879   2.879   2.879   2.879   2.879   2.879   2.879   2.879   2.879   2.879   2.879   2.879   2.879   2.879   2.879   2.879   2.879   2.879   2.879   2.879
   172.43    2.879   2.879   2.879   2.879   2.879   2.879   2.879   2.879   2.879   2.879   2.879   2.879   2.879   2.879   2.879   2.879   2.879   2.879   2.879   2.879   2.879   2.879   2.879   2.879   2.879   2.879   2.879   2.879   2.879   2.879   2.879   2.879   2.879   2.879   2.879   2.879
   163.86    2.879   2.879   2.879   2.879   2.879   2.879   2.879   2.879   2.879   2.879   2.879   2.879   2.879   2.879   2.879   2.879   2.879   2.879   2.879   2.879   2.879   2.879   2.879   2.879   2.879   2.879   2.879   2.879   2.879   2.879   2.879   2.879   2.879   2.879   2.879   2.879
   155.29    2.879   2.879   2.879   2.879   2.879   2.879   2.879   2.879   2.879   2.879   2.879   2.879   2.879   2.879   2.879   2.879   2.879   2.879   2.879   2.879   2.879   2.879   2.879   2.879   2.879   2.879   2.879   2.879   2.879   2.879   2.879   2.879   2.879   2.879   2.879   2.879
   146.71    2.879   2.879   2.879   2.879   2.879   2.879   2.879   2.879   2.879   2.879   2.879   2.879   2.879   2.879   2.879   2.879   2.879   2.879   2.879   2.879   2.879   2.879   2.879   2.879   2.879   2.879   2.879   2.879   2.879   2.879   2.879   2.879   2.879   2.879   2.879   2.879
   138.14    2.879   2.879   2.879   2.879   2.879   2.879   2.879   2.879   2.879   2.879   2.879   2.879   2.879   2.879   2.879   2.879   2.879   2.879   2.879   2.879   2.879   2.879   2.879   2.879   2.879   2.879   2.879   2.879   2.879   2.879   2.879   2.879   2.879   2.879   2.879   2.879
   129.57    2.879   2.879   2.879   2.879   2.879   2.879   2.879   2.879   2.879   2.879   2.879   2.879   2.879   2.879   2.879   2.879   2.879   2.879   2.879   2.879   2.879   2.879   2.879   2.879   2.879   2.879   2.879   2.879   2.879   2.879   2.879   2.879   2.879   2.879   2.879   2.879
   121.00    2.879   2.879   2.879   2.879   2.879   2.879   2.879   2.879   2.879   2.879   2.879   2.879   2.879   2.879   2.879   2.879   2.879   2.879   2.879   2.879   2.879   2.879   2.879   2.879   2.879   2.879   2.879   2.879   2.879   2.879   2.879   2.879   2.879   2.879   2.879   2.879
   112.43    2.879   2.879   2.879   2.879   2.879   2.879   2.879   2.879   2.879   2.879   2.879   2.879   2.879   2.879   2.879   2.879   2.879   2.879   2.879   2.879   2.879   2.879   2.879   2.879   2.879   2.879   2.879   2.879   2.879   2.879   2.879   2.879   2.879   2.879   2.879   2.879
   103.86    2.879   2.879   2.879   2.879   2.879   2.879   2.879   2.879   2.879   2.879   2.879   2.879   2.879   2.879   2.879   2.879   2.879   2.879   2.879   2.879   2.879   2.879   2.879   2.879   2.879   2.879   2.879   2.879   2.879   2.879   2.879   2.879   2.879   2.879   2.879   2.879
    95.29    2.879   2.879   2.879   2.879   2.879   2.879   2.879   2.879   2.879   2.879   2.879   2.879   2.879   2.879   2.879   2.879   2.879   2.879   2.879   2.879   2.879   2.879   2.879   2.879   2.879   2.879   2.879   2.879   2.879   2.879   2.879   2.879   2.879   2.879   2.879   2.879
    86.71    2.879   2.879   2.879   2.879   2.879   2.879   2.879   2.879   2.879   2.879   2.879   2.879   2.879   2.879   2.879   2.879   2.879   2.879   2.879   2.879   2.879   2.879   2.879   2.879   2.879   2.879   2.879   2.879   2.879   2.879   2.879   2.879   2.879   2.879   2.879   2.879
    78.14    2.879   2.879   2.879   2.879   2.879   2.879   2.879   2.879   2.879   2.879   2.879   2.879   2.879   2.879   2.879   2.879   2.879   2.879   2.879   2.879   2.879   2.879   2.879   2.879   2.879   2.879   2.879   2.879   2.879   2.879   2.879   2.879   2.879   2.879   2.879   2.879
    69.57    2.879   2.879   2.879   2.879   2.879   2.879   2.879   2.879   2.879   2.879   2.879   2.879   2.879   2.879   2.879   2.879   2.879   2.879   2.879   2.879   2.879   2.879   2.879   2.879   2.879   2.879   2.879   2.879   2.879   2.879   2.879   2.879   2.879   2.879   2.879   2.879
    61.00    2.879   2.879   2.879   2.879   2.879   2.879   2.879   2.879   2.879   2.879   2.879   2.879   2.879   2.879   2.879   2.879   2.879   2.879   2.879   2.879   2.879   2.879   2.879   2.879   2.879   2.879   2.879   2.879   2.879   2.879   2.879   2.879   2.879   2.879   2.879   2.879
    52.43    2.879   2.879   2.879   2.879   2.879   2.879   2.879   2.879   2.879   2.879   2.879   2.879   2.879   2.879   2.879   2.879   2.879   2.879   2.879   2.879   2.879   2.879   2.879   2.879   2.879   2.879   2.879   2.879   2.879   2.879   2.879   2.879   2.879   2.879   2.879   2.879
    43.86    2.879   2.879   2.879   2.879   2.879   2.879   2.879   2.879   2.879   2.879   2.879   2.879   2.879   2.879   2.879   2.879   2.879   2.879   2.879   2.879   2.879   2.879   2.879   2.879   2.879   2.879   2.879   2.879   2.879   2.879   2.879   2.879   2.879   2.879   2.879   2.879
    35.29    2.879   2.879   2.879   2.879   2.879   2.879   2.879   2.879   2.879   2.879   2.879   2.879   2.879   2.879   2.879   2.879   2.879   2.879   2.879   2.879   2.879   2.879   2.879   2.879   2.879   2.879   2.879   2.879   2.879   2.879   2.879   2.879   2.879   2.879   2.879   2.879
    26.71    2.879   2.879   2.879   2.879   2.879   2.879   2.879   2.879   2.879   2.879   2.879   2.879   2.879   2.879   2.879   2.879   2.879   2.879   2.879   2.879   2.879   2.879   2.879   2.879   2.879   2.879   2.879   2.879   2.879   2.879   2.879   2.879   2.879   2.879   2.879   2.879
    18.14    2.879   2.879   2.879   2.879   2.879   2.879   2.879   2.879   2.879   2.879   2.879   2.879   2.879   2.879   2.879   2.879   2.879   2.879   2.879   2.879   2.879   2.879   2.879   2.879   2.879   2.879   2.879   2.879   2.879   2.879   2.879   2.879   2.879   2.879   2.879   2.879
     9.57    2.879   2.879   2.879   2.879   2.879   2.879   2.879   2.879   2.879   2.879   2.879   2.879   2.879   2.879   2.879   2.879   2.879   2.879   2.879   2.879   2.879   2.879   2.879   2.879   2.879   2.879   2.879   2.879   2.879   2.879   2.879   2.879   2.879   2.879   2.879   2.879
     1.00    2.879   2.879   2.879   2.879   2.879   2.879   2.879   2.879   2.879   2.879   2.879   2.879   2.879   2.879   2.879   2.879   2.879   2.879   2.879   2.879   2.879   2.879   2.879   2.879   2.879   2.879   2.879   2.879   2.879   2.879   2.879   2.879   2.879   2.879   2.879   2.879

   Mean standard deviation across all grid points:
      u component:    2.853 m/s
      v component:    2.879 m/s
      w component:    2.879 m/s


U-component (X) statistics from the interpolated hub point:

   Mean =  16.9542 m/s
   TI   =  15.5004 %


Normalizing Parameters for Binary Data (approximate statistics):

   UBar  =  16.9553 m/s
   TI(u) =  16.9276 %
   TI(v) =  16.9825 %
   TI(w) =  16.9825 %

   Height Offset =   0.0000 m
   Grid Base     =   1.0000 m

Creating a PERIODIC output file.


Processing complete.  113.19 CPU seconds used.
