
This summary file was generated by TurbSim (v2.00.07a-bjj, 14-Jun-2016) on 03-Nov-2023 at 03:24:06.


Runtime Options:

      3401  Random seed #1
    RANLUX  Type of random number generator
         F  Output binary HH turbulence parameters?
         F  Output formatted turbulence parameters?
         F  Output AeroDyn HH files?
         F  Output AeroDyn FF files?
         T  Output BLADED FF files?
         F  Output tower data?
         F  Output formatted FF files?
         F  Output coherent turbulence time step file?
         T  Clockwise rotation when looking downwind?
 0 -  NONE  IEC turbulence models scaled to exact specified standard deviation


Turbine/Model Specifications:

        36  Vertical grid-point matrix dimension
        36  Horizontal grid-point matrix dimension
     0.100  Time step [seconds]
   660.000  Analysis time [seconds]
   660.000  Usable output time [seconds]
   151.000  Hub height [m]
   300.000  Grid height [m]
   300.000  Grid width [m]
     0.000  Vertical flow angle [degrees]
     0.000  Horizontal flow angle [degrees]


Meteorological Boundary Conditions:

    IECVKM  IEC von Karman spectral model
         1  IEC standard: IEC 61400-1 Ed. 3: 2005
         A  IEC turbulence characteristic
       NTM  IEC Normal Turbulence Model
       N/A  IEC Extreme Turbulence Model (ETM) "c" parameter [m/s]
       PL   Wind profile type
   153.000  Reference height [m]
    16.000  Reference wind speed [m/s]
       N/A  Jet height [m]
     0.200  Power law exponent
     0.030  Surface roughness length [m]


Non-IEC Meteorological Boundary Conditions:

       N/A  Site latitude [degrees]
       N/A  Gradient Richardson number
       N/A  Friction or shear velocity [m/s]
       N/A  Mixing layer depth [m]
       N/A  Mean hub u'w' Reynolds stress
       N/A  Mean hub u'v' Reynolds stress
       N/A  Mean hub v'w' Reynolds stress


Spatial Coherence Models:

       IEC  u-component coherence model
      NONE  v-component coherence model
      NONE  w-component coherence model
(   12.000, 0.353E-03)  u-component coherence parameters
                   N/A  v-component coherence parameters
                   N/A  w-component coherence parameters
       N/A  Coherence exponent


You have requested that the following file(s) be generated:

   G:\2023\OpenWECDV1.0.0_x64\BaseLIne\wind\WindL_V_16_seed_3401.wnd (AeroDyn/BLADED full-field wnd file)


Turbulence Simulation Scaling Parameter Summary:

   Turbulence model used                            =  IEC von Karman
   Turbulence characteristic                        =  A
   IEC turbulence type                              =  Normal Turbulence Model
   IEC standard                                     =  IEC 61400-1 Ed. 3: 2005
   Mean wind speed at hub height                    =   15.958 m/s
   Expected value of turbulence intensity at 15 m/s =   16.000%
   Characteristic value of standard deviation       =    2.811 m/s
   Turbulence scale                                 =   42.000 m
   Isotropic integral scale                         =  147.000 m
   Characteristic value of hub turbulence intensity =   17.615%
   Gradient Richardson number                       =    0.000

   Wind profile type                                =  Power law
   Power law exponent                               =    0.200
   Mean shear across rotor disk                     =    0.042 (m/s)/m
   Assumed rotor diameter                           =  300.000 m
   Surface roughness length                         =    0.030 m

   Nyquist frequency of turbulent wind field        =    5.000 Hz

   Number of time steps in the FFT                  =     6600
   Number of time steps output                      =     6600
   Number of points simulated                       =     1297


Mean Flow Angles:

   Vertical   =   0.0 degrees
   Horizontal =   0.0 degrees

Mean Wind Speed Profile:

   Height    Wind Speed   Horizontal Angle  Vertical Angle  U-comp (X)   V-comp (Y)   W-comp (Z)
     (m)        (m/s)         (degrees)       (degrees)       (m/s)        (m/s)        (m/s)   
   ------    ----------   ----------------  --------------  ----------   ----------   ----------
    301.0       18.32            0.00            0.00         18.32         0.00         0.00
    292.4       18.21            0.00            0.00         18.21         0.00         0.00
    283.9       18.11            0.00            0.00         18.11         0.00         0.00
    275.3       17.99            0.00            0.00         17.99         0.00         0.00
    266.7       17.88            0.00            0.00         17.88         0.00         0.00
    258.1       17.76            0.00            0.00         17.76         0.00         0.00
    249.6       17.64            0.00            0.00         17.64         0.00         0.00
    241.0       17.52            0.00            0.00         17.52         0.00         0.00
    232.4       17.40            0.00            0.00         17.40         0.00         0.00
    223.9       17.27            0.00            0.00         17.27         0.00         0.00
    215.3       17.13            0.00            0.00         17.13         0.00         0.00
    206.7       16.99            0.00            0.00         16.99         0.00         0.00
    198.1       16.85            0.00            0.00         16.85         0.00         0.00
    189.6       16.70            0.00            0.00         16.70         0.00         0.00
    181.0       16.55            0.00            0.00         16.55         0.00         0.00
    172.4       16.39            0.00            0.00         16.39         0.00         0.00
    163.9       16.22            0.00            0.00         16.22         0.00         0.00
    155.3       16.05            0.00            0.00         16.05         0.00         0.00
    151.0       15.96            0.00            0.00         15.96         0.00         0.00
    146.7       15.87            0.00            0.00         15.87         0.00         0.00
    138.1       15.68            0.00            0.00         15.68         0.00         0.00
    129.6       15.48            0.00            0.00         15.48         0.00         0.00
    121.0       15.27            0.00            0.00         15.27         0.00         0.00
    112.4       15.04            0.00            0.00         15.04         0.00         0.00
    103.9       14.81            0.00            0.00         14.81         0.00         0.00
     95.3       14.55            0.00            0.00         14.55         0.00         0.00
     86.7       14.28            0.00            0.00         14.28         0.00         0.00
     78.1       13.99            0.00            0.00         13.99         0.00         0.00
     69.6       13.67            0.00            0.00         13.67         0.00         0.00
     61.0       13.31            0.00            0.00         13.31         0.00         0.00
     52.4       12.92            0.00            0.00         12.92         0.00         0.00
     43.9       12.46            0.00            0.00         12.46         0.00         0.00
     35.3       11.93            0.00            0.00         11.93         0.00         0.00
     26.7       11.29            0.00            0.00         11.29         0.00         0.00
     18.1       10.45            0.00            0.00         10.45         0.00         0.00
      9.6        9.19            0.00            0.00          9.19         0.00         0.00
      1.0        5.85            0.00            0.00          5.85         0.00         0.00


Harvested Random Seeds after Generation of the Random Numbers:

    119307688 K 1
            0 K 2


Hub-Height Simulated Turbulence Statistical Summary:

   Type of Wind        Min (m/s)   Mean (m/s)    Max (m/s)  Sigma (m/s)       TI (%)
   ----------------    ---------   ----------    ---------  -----------       ------
   Longitudinal (u)         6.82        15.96        23.54        2.458       15.400
   Lateral (v)             -8.81         0.00         8.09        2.762       17.306
   Vertical (w)            -8.29         0.00         8.96        2.762       17.306
   U component              6.82        15.96        23.54        2.458       15.400
   V component             -8.81         0.00         8.09        2.762       17.306
   W component             -8.29         0.00         8.96        2.762       17.306
   Horizontal (U&V)         7.96        16.20        24.20        2.411       14.878
   Total                    8.47        16.44        24.26        2.382       14.487

                       Min Reynolds     Mean Reynolds    Max Reynolds    Correlation
   Product             Stress (m/s)^2   Stress (m/s)^2   Stress (m/s)^2  Coefficient
   ----------------    --------------   --------------   --------------  -----------
   u'w'                    -41.693            -0.110            51.317        -0.016
   u'v'                    -42.695            -0.446            60.508        -0.066
   v'w'                    -41.598             0.583            41.938         0.076


   Friction Velocity (Ustar)  =      0.332 m/s
   Maximum Instantaneous TKE  =     64.923 (m/s)^2
   Maximum Instantaneous CTKE =     32.608 (m/s)^2


Grid Point Variance Summary:

   Y-coord -150.00 -141.43 -132.86 -124.29 -115.71 -107.14  -98.57  -90.00  -81.43  -72.86  -64.29  -55.71  -47.14  -38.57  -30.00  -21.43  -12.86   -4.29    4.29   12.86   21.43   30.00   38.57   47.14   55.71   64.29   72.86   81.43   90.00   98.57  107.14  115.71  124.29  132.86  141.43  150.00

   Height   Standard deviation at grid points for the u component:
   301.00    2.454   2.644   2.554   2.713   2.706   2.651   2.594   2.696   2.874   2.799   2.879   2.992   2.917   2.696   2.853   2.817   2.876   2.946   2.934   2.896   2.804   2.772   2.804   2.885   3.087   3.190   3.191   3.123   2.994   2.924   2.868   2.904   3.082   2.933   2.967   2.897
   292.43    2.524   2.743   2.719   2.736   2.906   2.745   2.697   2.567   2.675   2.884   2.940   2.921   2.915   2.728   2.894   2.948   2.961   2.837   2.825   2.817   2.828   2.963   2.915   3.038   3.263   3.314   3.397   3.197   3.209   2.962   2.911   2.887   3.073   3.015   2.844   2.857
   283.86    2.497   2.585   2.699   2.963   2.984   2.878   2.788   2.695   2.762   2.844   3.013   2.895   2.742   2.830   3.049   3.038   2.971   2.883   2.865   2.854   2.783   3.029   3.217   3.175   3.245   3.173   3.288   3.129   3.038   2.931   2.812   2.893   2.917   3.115   3.074   2.916
   275.29    2.667   2.668   2.889   2.934   2.995   3.011   2.906   2.704   2.689   2.878   2.832   2.901   2.872   2.697   2.754   2.756   2.879   2.948   2.856   2.835   2.722   3.054   3.129   3.260   3.124   3.019   3.145   3.012   2.996   3.210   3.047   2.930   3.052   3.101   2.903   2.917
   266.71    2.743   2.750   2.853   2.903   3.032   2.718   2.881   2.886   2.726   2.576   2.816   2.803   2.813   2.638   2.808   2.612   2.611   2.732   2.977   2.973   3.071   2.927   3.014   3.213   3.132   2.982   2.950   3.011   3.117   3.364   3.255   3.122   2.970   3.088   3.154   2.888
   258.14    2.618   2.805   2.869   2.910   3.077   2.836   2.918   2.983   2.988   2.777   2.839   2.779   2.793   2.631   2.753   2.682   2.487   2.688   2.980   2.930   2.845   2.910   2.982   3.260   3.018   3.062   3.117   3.055   3.279   3.323   3.316   3.315   3.186   3.169   3.168   3.061
   249.57    2.796   2.971   3.010   2.977   3.062   3.090   3.086   3.001   2.958   2.861   2.690   2.888   2.724   2.649   2.583   2.474   2.478   2.558   2.794   2.806   2.848   2.872   2.864   3.024   3.101   3.146   3.013   3.136   3.274   3.363   3.204   3.064   3.070   3.042   2.993   2.826
   241.00    2.906   2.985   3.003   2.896   2.901   3.039   3.217   3.045   2.852   2.825   2.788   2.770   2.594   2.615   2.611   2.354   2.448   2.636   2.681   2.799   2.766   2.919   2.972   2.893   2.890   3.100   2.843   3.059   3.221   3.158   3.096   3.039   3.025   2.915   2.789   2.761
   232.43    3.089   3.241   3.004   2.954   3.046   3.009   3.015   2.832   2.734   2.770   2.618   2.575   2.518   2.546   2.575   2.445   2.566   2.671   2.743   2.770   2.908   2.810   2.983   2.806   2.894   3.162   3.046   3.180   2.984   3.047   2.950   3.033   2.925   2.775   2.795   2.670
   223.86    3.273   3.286   3.164   2.857   2.978   2.975   3.072   2.790   2.789   2.630   2.480   2.499   2.577   2.779   2.572   2.417   2.652   2.613   2.867   2.963   3.024   2.961   2.902   2.971   2.983   2.966   3.036   3.031   2.874   2.944   3.096   3.018   2.799   2.794   2.628   2.632
   215.29    3.220   3.039   2.914   2.780   2.848   3.086   2.974   2.815   2.776   2.722   2.648   2.594   2.635   2.722   2.718   2.598   2.704   2.716   2.850   3.006   2.989   2.927   2.972   2.841   2.902   2.996   2.813   2.909   2.737   2.803   2.976   2.830   2.717   2.710   2.745   2.784
   206.71    2.920   2.997   3.028   2.794   2.975   3.131   3.030   2.936   2.912   3.018   2.793   2.871   2.950   2.957   2.831   2.779   2.759   2.695   2.727   2.727   2.812   2.854   2.849   2.818   2.742   2.912   2.912   2.830   2.862   2.936   2.809   2.883   2.710   2.822   2.869   2.788
   198.14    2.790   3.012   3.085   2.942   2.888   3.091   3.126   3.186   3.057   2.905   2.894   2.971   3.061   3.072   2.913   2.843   2.718   2.718   2.701   2.702   2.713   2.451   2.672   2.716   2.789   2.801   2.864   2.899   2.825   2.868   2.885   2.766   2.678   2.748   2.620   2.655
   189.57    2.929   2.935   2.855   3.047   2.951   2.833   3.074   3.181   3.081   2.792   2.693   2.918   3.001   2.882   2.825   2.583   2.786   2.662   2.565   2.547   2.667   2.485   2.547   2.803   2.942   2.780   2.877   2.939   2.687   2.699   2.809   2.753   2.668   2.523   2.651   2.507
   181.00    3.007   2.941   2.959   2.950   2.918   2.969   3.101   3.068   2.987   2.902   2.887   2.977   2.864   2.831   2.783   2.678   2.547   2.710   2.697   2.528   2.542   2.609   2.687   2.819   2.854   2.932   2.739   2.770   2.707   2.761   2.820   2.900   2.690   2.540   2.606   2.488
   172.43    3.049   2.917   2.883   2.823   2.827   3.038   3.175   3.068   3.087   2.949   2.916   2.981   2.810   2.797   2.876   2.791   2.761   2.642   2.598   2.532   2.369   2.544   2.715   2.790   2.759   2.755   2.794   2.897   2.801   2.743   2.849   2.968   2.681   2.675   2.627   2.688
   163.86    2.923   2.858   2.807   2.716   2.729   2.891   3.177   3.268   3.077   3.105   3.009   2.891   2.795   2.768   2.634   2.837   2.760   2.588   2.382   2.422   2.358   2.513   2.714   2.745   2.705   2.648   2.566   2.674   2.535   2.680   2.665   2.783   2.794   2.767   2.745   2.882
   155.29    2.928   2.936   2.660   2.777   2.622   2.873   3.163   3.282   3.188   3.108   3.043   3.018   2.666   2.781   2.651   2.663   2.746   2.523   2.479   2.242   2.298   2.619   2.565   2.585   2.563   2.454   2.519   2.435   2.379   2.509   2.558   2.656   2.773   2.711   2.832   2.850
   146.71    3.122   2.932   2.926   2.783   2.859   3.104   3.182   3.251   2.971   3.022   3.035   3.047   2.980   2.778   2.613   2.609   2.659   2.516   2.282   2.305   2.402   2.409   2.536   2.588   2.346   2.448   2.358   2.227   2.337   2.465   2.629   2.640   2.717   2.762   2.783   2.927
   138.14    3.000   3.005   2.925   2.827   2.965   2.969   3.164   3.209   3.065   2.918   3.025   3.103   3.070   2.799   2.554   2.659   2.596   2.514   2.489   2.388   2.299   2.470   2.488   2.461   2.542   2.368   2.456   2.344   2.351   2.517   2.527   2.587   2.705   2.703   2.782   2.874
   129.57    3.016   2.956   2.726   2.655   2.943   2.901   3.051   3.206   3.110   3.188   3.140   3.181   2.886   2.668   2.595   2.677   2.577   2.580   2.480   2.447   2.342   2.347   2.348   2.396   2.684   2.594   2.558   2.610   2.487   2.421   2.507   2.461   2.627   2.473   2.593   2.680
   121.00    3.079   2.958   2.906   2.907   2.948   2.970   2.823   3.063   3.186   3.086   2.934   3.073   2.991   2.701   2.710   2.559   2.596   2.536   2.558   2.519   2.530   2.356   2.282   2.286   2.482   2.489   2.520   2.720   2.536   2.493   2.515   2.482   2.626   2.624   2.705   2.635
   112.43    2.983   3.026   2.923   2.918   2.924   2.980   3.015   3.146   3.030   3.143   3.014   3.027   3.014   2.778   2.721   2.780   2.670   2.732   2.608   2.505   2.532   2.267   2.246   2.242   2.475   2.526   2.628   2.595   2.462   2.496   2.383   2.396   2.608   2.624   2.615   2.668
   103.86    3.081   2.970   2.850   2.838   2.837   2.825   2.868   2.916   3.091   3.055   3.165   3.097   3.202   3.078   2.870   2.851   2.758   2.617   2.514   2.512   2.429   2.306   2.336   2.267   2.329   2.616   2.503   2.506   2.464   2.529   2.814   2.527   2.460   2.485   2.582   2.616
    95.29    3.016   2.927   2.959   3.078   2.866   2.959   2.912   3.083   3.063   2.947   2.969   3.132   3.106   3.083   2.758   2.794   2.621   2.482   2.498   2.367   2.305   2.228   2.248   2.178   2.274   2.334   2.499   2.439   2.324   2.572   2.928   2.819   2.662   2.649   2.548   2.710
    86.71    2.980   3.050   3.238   3.127   3.112   3.085   3.076   3.105   3.128   2.851   3.005   3.039   3.056   2.822   2.773   2.695   2.629   2.636   2.518   2.370   2.331   2.273   2.150   2.206   2.216   2.272   2.285   2.552   2.606   2.679   2.880   2.914   2.769   2.857   2.538   2.624
    78.14    2.985   3.050   3.178   3.192   3.025   2.994   2.943   2.999   2.939   2.719   2.866   2.904   2.876   2.805   2.653   2.693   2.740   2.660   2.424   2.365   2.384   2.344   2.289   2.168   2.275   2.371   2.323   2.585   2.652   2.716   2.954   2.803   2.893   2.892   2.833   2.705
    69.57    2.849   3.026   3.071   3.249   2.951   2.980   2.919   2.954   2.868   2.682   2.639   2.729   2.629   2.726   2.764   2.691   2.609   2.581   2.419   2.340   2.449   2.243   2.246   2.348   2.278   2.327   2.533   2.567   2.677   2.870   2.879   2.729   2.921   2.752   2.750   2.824
    61.00    2.806   2.879   2.992   3.136   3.104   2.899   2.930   2.885   2.785   2.717   2.636   2.641   2.551   2.595   2.590   2.647   2.584   2.687   2.482   2.363   2.407   2.288   2.151   2.353   2.453   2.489   2.640   2.525   2.603   2.887   2.935   2.784   2.816   2.768   2.761   2.759
    52.43    3.010   2.988   2.999   2.909   2.853   2.845   2.835   2.823   2.610   2.623   2.654   2.509   2.582   2.412   2.472   2.509   2.590   2.589   2.517   2.493   2.472   2.361   2.221   2.345   2.573   2.565   2.593   2.698   2.733   2.843   2.773   2.576   2.804   2.591   2.703   2.742
    43.86    2.800   2.896   2.779   2.814   3.014   2.821   2.796   2.647   2.839   2.660   2.582   2.604   2.581   2.526   2.423   2.442   2.290   2.471   2.581   2.636   2.500   2.498   2.368   2.467   2.491   2.454   2.654   2.757   2.824   2.858   2.751   2.552   2.632   2.637   2.575   2.579
    35.29    2.793   2.808   2.588   2.672   2.811   2.679   2.768   2.716   2.702   2.608   2.630   2.467   2.570   2.553   2.446   2.323   2.423   2.526   2.517   2.474   2.483   2.712   2.625   2.533   2.454   2.372   2.677   2.840   2.791   2.893   2.779   2.575   2.560   2.666   2.563   2.393
    26.71    2.749   2.675   2.760   2.624   2.781   2.536   2.703   2.634   2.616   2.579   2.527   2.468   2.606   2.585   2.481   2.440   2.474   2.604   2.586   2.561   2.711   2.790   2.746   2.834   2.700   2.531   2.708   2.764   2.793   2.925   2.790   2.628   2.747   2.583   2.465   2.412
    18.14    2.641   2.808   2.752   2.608   2.612   2.552   2.699   2.432   2.472   2.330   2.262   2.498   2.521   2.614   2.593   2.658   2.595   2.630   2.624   2.729   2.733   2.764   2.664   2.766   2.692   2.788   2.741   2.791   2.690   2.749   2.756   2.637   2.658   2.568   2.375   2.553
     9.57    2.689   2.732   2.775   2.470   2.448   2.439   2.576   2.409   2.194   2.211   2.313   2.514   2.726   2.777   2.620   2.691   2.725   2.714   2.726   2.659   2.696   2.733   2.739   2.642   2.717   2.723   2.644   2.655   2.555   2.740   2.513   2.546   2.582   2.592   2.612   2.542
     1.00    2.750   2.714   2.701   2.624   2.493   2.542   2.478   2.557   2.418   2.393   2.458   2.579   2.726   2.689   2.600   2.636   2.745   2.828   2.691   2.680   2.643   2.595   2.761   2.663   2.691   2.732   2.640   2.576   2.649   2.631   2.564   2.479   2.458   2.530   2.620   2.602

   Height   Standard deviation at grid points for the v component:
   301.00    2.762   2.762   2.762   2.762   2.762   2.762   2.762   2.762   2.762   2.762   2.762   2.762   2.762   2.762   2.762   2.762   2.762   2.762   2.762   2.762   2.762   2.762   2.762   2.762   2.762   2.762   2.762   2.762   2.762   2.762   2.762   2.762   2.762   2.762   2.762   2.762
   292.43    2.762   2.762   2.762   2.762   2.762   2.762   2.762   2.762   2.762   2.762   2.762   2.762   2.762   2.762   2.762   2.762   2.762   2.762   2.762   2.762   2.762   2.762   2.762   2.762   2.762   2.762   2.762   2.762   2.762   2.762   2.762   2.762   2.762   2.762   2.762   2.762
   283.86    2.762   2.762   2.762   2.762   2.762   2.762   2.762   2.762   2.762   2.762   2.762   2.762   2.762   2.762   2.762   2.762   2.762   2.762   2.762   2.762   2.762   2.762   2.762   2.762   2.762   2.762   2.762   2.762   2.762   2.762   2.762   2.762   2.762   2.762   2.762   2.762
   275.29    2.762   2.762   2.762   2.762   2.762   2.762   2.762   2.762   2.762   2.762   2.762   2.762   2.762   2.762   2.762   2.762   2.762   2.762   2.762   2.762   2.762   2.762   2.762   2.762   2.762   2.762   2.762   2.762   2.762   2.762   2.762   2.762   2.762   2.762   2.762   2.762
   266.71    2.762   2.762   2.762   2.762   2.762   2.762   2.762   2.762   2.762   2.762   2.762   2.762   2.762   2.762   2.762   2.762   2.762   2.762   2.762   2.762   2.762   2.762   2.762   2.762   2.762   2.762   2.762   2.762   2.762   2.762   2.762   2.762   2.762   2.762   2.762   2.762
   258.14    2.762   2.762   2.762   2.762   2.762   2.762   2.762   2.762   2.762   2.762   2.762   2.762   2.762   2.762   2.762   2.762   2.762   2.762   2.762   2.762   2.762   2.762   2.762   2.762   2.762   2.762   2.762   2.762   2.762   2.762   2.762   2.762   2.762   2.762   2.762   2.762
   249.57    2.762   2.762   2.762   2.762   2.762   2.762   2.762   2.762   2.762   2.762   2.762   2.762   2.762   2.762   2.762   2.762   2.762   2.762   2.762   2.762   2.762   2.762   2.762   2.762   2.762   2.762   2.762   2.762   2.762   2.762   2.762   2.762   2.762   2.762   2.762   2.762
   241.00    2.762   2.762   2.762   2.762   2.762   2.762   2.762   2.762   2.762   2.762   2.762   2.762   2.762   2.762   2.762   2.762   2.762   2.762   2.762   2.762   2.762   2.762   2.762   2.762   2.762   2.762   2.762   2.762   2.762   2.762   2.762   2.762   2.762   2.762   2.762   2.762
   232.43    2.762   2.762   2.762   2.762   2.762   2.762   2.762   2.762   2.762   2.762   2.762   2.762   2.762   2.762   2.762   2.762   2.762   2.762   2.762   2.762   2.762   2.762   2.762   2.762   2.762   2.762   2.762   2.762   2.762   2.762   2.762   2.762   2.762   2.762   2.762   2.762
   223.86    2.762   2.762   2.762   2.762   2.762   2.762   2.762   2.762   2.762   2.762   2.762   2.762   2.762   2.762   2.762   2.762   2.762   2.762   2.762   2.762   2.762   2.762   2.762   2.762   2.762   2.762   2.762   2.762   2.762   2.762   2.762   2.762   2.762   2.762   2.762   2.762
   215.29    2.762   2.762   2.762   2.762   2.762   2.762   2.762   2.762   2.762   2.762   2.762   2.762   2.762   2.762   2.762   2.762   2.762   2.762   2.762   2.762   2.762   2.762   2.762   2.762   2.762   2.762   2.762   2.762   2.762   2.762   2.762   2.762   2.762   2.762   2.762   2.762
   206.71    2.762   2.762   2.762   2.762   2.762   2.762   2.762   2.762   2.762   2.762   2.762   2.762   2.762   2.762   2.762   2.762   2.762   2.762   2.762   2.762   2.762   2.762   2.762   2.762   2.762   2.762   2.762   2.762   2.762   2.762   2.762   2.762   2.762   2.762   2.762   2.762
   198.14    2.762   2.762   2.762   2.762   2.762   2.762   2.762   2.762   2.762   2.762   2.762   2.762   2.762   2.762   2.762   2.762   2.762   2.762   2.762   2.762   2.762   2.762   2.762   2.762   2.762   2.762   2.762   2.762   2.762   2.762   2.762   2.762   2.762   2.762   2.762   2.762
   189.57    2.762   2.762   2.762   2.762   2.762   2.762   2.762   2.762   2.762   2.762   2.762   2.762   2.762   2.762   2.762   2.762   2.762   2.762   2.762   2.762   2.762   2.762   2.762   2.762   2.762   2.762   2.762   2.762   2.762   2.762   2.762   2.762   2.762   2.762   2.762   2.762
   181.00    2.762   2.762   2.762   2.762   2.762   2.762   2.762   2.762   2.762   2.762   2.762   2.762   2.762   2.762   2.762   2.762   2.762   2.762   2.762   2.762   2.762   2.762   2.762   2.762   2.762   2.762   2.762   2.762   2.762   2.762   2.762   2.762   2.762   2.762   2.762   2.762
   172.43    2.762   2.762   2.762   2.762   2.762   2.762   2.762   2.762   2.762   2.762   2.762   2.762   2.762   2.762   2.762   2.762   2.762   2.762   2.762   2.762   2.762   2.762   2.762   2.762   2.762   2.762   2.762   2.762   2.762   2.762   2.762   2.762   2.762   2.762   2.762   2.762
   163.86    2.762   2.762   2.762   2.762   2.762   2.762   2.762   2.762   2.762   2.762   2.762   2.762   2.762   2.762   2.762   2.762   2.762   2.762   2.762   2.762   2.762   2.762   2.762   2.762   2.762   2.762   2.762   2.762   2.762   2.762   2.762   2.762   2.762   2.762   2.762   2.762
   155.29    2.762   2.762   2.762   2.762   2.762   2.762   2.762   2.762   2.762   2.762   2.762   2.762   2.762   2.762   2.762   2.762   2.762   2.762   2.762   2.762   2.762   2.762   2.762   2.762   2.762   2.762   2.762   2.762   2.762   2.762   2.762   2.762   2.762   2.762   2.762   2.762
   146.71    2.762   2.762   2.762   2.762   2.762   2.762   2.762   2.762   2.762   2.762   2.762   2.762   2.762   2.762   2.762   2.762   2.762   2.762   2.762   2.762   2.762   2.762   2.762   2.762   2.762   2.762   2.762   2.762   2.762   2.762   2.762   2.762   2.762   2.762   2.762   2.762
   138.14    2.762   2.762   2.762   2.762   2.762   2.762   2.762   2.762   2.762   2.762   2.762   2.762   2.762   2.762   2.762   2.762   2.762   2.762   2.762   2.762   2.762   2.762   2.762   2.762   2.762   2.762   2.762   2.762   2.762   2.762   2.762   2.762   2.762   2.762   2.762   2.762
   129.57    2.762   2.762   2.762   2.762   2.762   2.762   2.762   2.762   2.762   2.762   2.762   2.762   2.762   2.762   2.762   2.762   2.762   2.762   2.762   2.762   2.762   2.762   2.762   2.762   2.762   2.762   2.762   2.762   2.762   2.762   2.762   2.762   2.762   2.762   2.762   2.762
   121.00    2.762   2.762   2.762   2.762   2.762   2.762   2.762   2.762   2.762   2.762   2.762   2.762   2.762   2.762   2.762   2.762   2.762   2.762   2.762   2.762   2.762   2.762   2.762   2.762   2.762   2.762   2.762   2.762   2.762   2.762   2.762   2.762   2.762   2.762   2.762   2.762
   112.43    2.762   2.762   2.762   2.762   2.762   2.762   2.762   2.762   2.762   2.762   2.762   2.762   2.762   2.762   2.762   2.762   2.762   2.762   2.762   2.762   2.762   2.762   2.762   2.762   2.762   2.762   2.762   2.762   2.762   2.762   2.762   2.762   2.762   2.762   2.762   2.762
   103.86    2.762   2.762   2.762   2.762   2.762   2.762   2.762   2.762   2.762   2.762   2.762   2.762   2.762   2.762   2.762   2.762   2.762   2.762   2.762   2.762   2.762   2.762   2.762   2.762   2.762   2.762   2.762   2.762   2.762   2.762   2.762   2.762   2.762   2.762   2.762   2.762
    95.29    2.762   2.762   2.762   2.762   2.762   2.762   2.762   2.762   2.762   2.762   2.762   2.762   2.762   2.762   2.762   2.762   2.762   2.762   2.762   2.762   2.762   2.762   2.762   2.762   2.762   2.762   2.762   2.762   2.762   2.762   2.762   2.762   2.762   2.762   2.762   2.762
    86.71    2.762   2.762   2.762   2.762   2.762   2.762   2.762   2.762   2.762   2.762   2.762   2.762   2.762   2.762   2.762   2.762   2.762   2.762   2.762   2.762   2.762   2.762   2.762   2.762   2.762   2.762   2.762   2.762   2.762   2.762   2.762   2.762   2.762   2.762   2.762   2.762
    78.14    2.762   2.762   2.762   2.762   2.762   2.762   2.762   2.762   2.762   2.762   2.762   2.762   2.762   2.762   2.762   2.762   2.762   2.762   2.762   2.762   2.762   2.762   2.762   2.762   2.762   2.762   2.762   2.762   2.762   2.762   2.762   2.762   2.762   2.762   2.762   2.762
    69.57    2.762   2.762   2.762   2.762   2.762   2.762   2.762   2.762   2.762   2.762   2.762   2.762   2.762   2.762   2.762   2.762   2.762   2.762   2.762   2.762   2.762   2.762   2.762   2.762   2.762   2.762   2.762   2.762   2.762   2.762   2.762   2.762   2.762   2.762   2.762   2.762
    61.00    2.762   2.762   2.762   2.762   2.762   2.762   2.762   2.762   2.762   2.762   2.762   2.762   2.762   2.762   2.762   2.762   2.762   2.762   2.762   2.762   2.762   2.762   2.762   2.762   2.762   2.762   2.762   2.762   2.762   2.762   2.762   2.762   2.762   2.762   2.762   2.762
    52.43    2.762   2.762   2.762   2.762   2.762   2.762   2.762   2.762   2.762   2.762   2.762   2.762   2.762   2.762   2.762   2.762   2.762   2.762   2.762   2.762   2.762   2.762   2.762   2.762   2.762   2.762   2.762   2.762   2.762   2.762   2.762   2.762   2.762   2.762   2.762   2.762
    43.86    2.762   2.762   2.762   2.762   2.762   2.762   2.762   2.762   2.762   2.762   2.762   2.762   2.762   2.762   2.762   2.762   2.762   2.762   2.762   2.762   2.762   2.762   2.762   2.762   2.762   2.762   2.762   2.762   2.762   2.762   2.762   2.762   2.762   2.762   2.762   2.762
    35.29    2.762   2.762   2.762   2.762   2.762   2.762   2.762   2.762   2.762   2.762   2.762   2.762   2.762   2.762   2.762   2.762   2.762   2.762   2.762   2.762   2.762   2.762   2.762   2.762   2.762   2.762   2.762   2.762   2.762   2.762   2.762   2.762   2.762   2.762   2.762   2.762
    26.71    2.762   2.762   2.762   2.762   2.762   2.762   2.762   2.762   2.762   2.762   2.762   2.762   2.762   2.762   2.762   2.762   2.762   2.762   2.762   2.762   2.762   2.762   2.762   2.762   2.762   2.762   2.762   2.762   2.762   2.762   2.762   2.762   2.762   2.762   2.762   2.762
    18.14    2.762   2.762   2.762   2.762   2.762   2.762   2.762   2.762   2.762   2.762   2.762   2.762   2.762   2.762   2.762   2.762   2.762   2.762   2.762   2.762   2.762   2.762   2.762   2.762   2.762   2.762   2.762   2.762   2.762   2.762   2.762   2.762   2.762   2.762   2.762   2.762
     9.57    2.762   2.762   2.762   2.762   2.762   2.762   2.762   2.762   2.762   2.762   2.762   2.762   2.762   2.762   2.762   2.762   2.762   2.762   2.762   2.762   2.762   2.762   2.762   2.762   2.762   2.762   2.762   2.762   2.762   2.762   2.762   2.762   2.762   2.762   2.762   2.762
     1.00    2.762   2.762   2.762   2.762   2.762   2.762   2.762   2.762   2.762   2.762   2.762   2.762   2.762   2.762   2.762   2.762   2.762   2.762   2.762   2.762   2.762   2.762   2.762   2.762   2.762   2.762   2.762   2.762   2.762   2.762   2.762   2.762   2.762   2.762   2.762   2.762

   Height   Standard deviation at grid points for the w component:
   301.00    2.762   2.762   2.762   2.762   2.762   2.762   2.762   2.762   2.762   2.762   2.762   2.762   2.762   2.762   2.762   2.762   2.762   2.762   2.762   2.762   2.762   2.762   2.762   2.762   2.762   2.762   2.762   2.762   2.762   2.762   2.762   2.762   2.762   2.762   2.762   2.762
   292.43    2.762   2.762   2.762   2.762   2.762   2.762   2.762   2.762   2.762   2.762   2.762   2.762   2.762   2.762   2.762   2.762   2.762   2.762   2.762   2.762   2.762   2.762   2.762   2.762   2.762   2.762   2.762   2.762   2.762   2.762   2.762   2.762   2.762   2.762   2.762   2.762
   283.86    2.762   2.762   2.762   2.762   2.762   2.762   2.762   2.762   2.762   2.762   2.762   2.762   2.762   2.762   2.762   2.762   2.762   2.762   2.762   2.762   2.762   2.762   2.762   2.762   2.762   2.762   2.762   2.762   2.762   2.762   2.762   2.762   2.762   2.762   2.762   2.762
   275.29    2.762   2.762   2.762   2.762   2.762   2.762   2.762   2.762   2.762   2.762   2.762   2.762   2.762   2.762   2.762   2.762   2.762   2.762   2.762   2.762   2.762   2.762   2.762   2.762   2.762   2.762   2.762   2.762   2.762   2.762   2.762   2.762   2.762   2.762   2.762   2.762
   266.71    2.762   2.762   2.762   2.762   2.762   2.762   2.762   2.762   2.762   2.762   2.762   2.762   2.762   2.762   2.762   2.762   2.762   2.762   2.762   2.762   2.762   2.762   2.762   2.762   2.762   2.762   2.762   2.762   2.762   2.762   2.762   2.762   2.762   2.762   2.762   2.762
   258.14    2.762   2.762   2.762   2.762   2.762   2.762   2.762   2.762   2.762   2.762   2.762   2.762   2.762   2.762   2.762   2.762   2.762   2.762   2.762   2.762   2.762   2.762   2.762   2.762   2.762   2.762   2.762   2.762   2.762   2.762   2.762   2.762   2.762   2.762   2.762   2.762
   249.57    2.762   2.762   2.762   2.762   2.762   2.762   2.762   2.762   2.762   2.762   2.762   2.762   2.762   2.762   2.762   2.762   2.762   2.762   2.762   2.762   2.762   2.762   2.762   2.762   2.762   2.762   2.762   2.762   2.762   2.762   2.762   2.762   2.762   2.762   2.762   2.762
   241.00    2.762   2.762   2.762   2.762   2.762   2.762   2.762   2.762   2.762   2.762   2.762   2.762   2.762   2.762   2.762   2.762   2.762   2.762   2.762   2.762   2.762   2.762   2.762   2.762   2.762   2.762   2.762   2.762   2.762   2.762   2.762   2.762   2.762   2.762   2.762   2.762
   232.43    2.762   2.762   2.762   2.762   2.762   2.762   2.762   2.762   2.762   2.762   2.762   2.762   2.762   2.762   2.762   2.762   2.762   2.762   2.762   2.762   2.762   2.762   2.762   2.762   2.762   2.762   2.762   2.762   2.762   2.762   2.762   2.762   2.762   2.762   2.762   2.762
   223.86    2.762   2.762   2.762   2.762   2.762   2.762   2.762   2.762   2.762   2.762   2.762   2.762   2.762   2.762   2.762   2.762   2.762   2.762   2.762   2.762   2.762   2.762   2.762   2.762   2.762   2.762   2.762   2.762   2.762   2.762   2.762   2.762   2.762   2.762   2.762   2.762
   215.29    2.762   2.762   2.762   2.762   2.762   2.762   2.762   2.762   2.762   2.762   2.762   2.762   2.762   2.762   2.762   2.762   2.762   2.762   2.762   2.762   2.762   2.762   2.762   2.762   2.762   2.762   2.762   2.762   2.762   2.762   2.762   2.762   2.762   2.762   2.762   2.762
   206.71    2.762   2.762   2.762   2.762   2.762   2.762   2.762   2.762   2.762   2.762   2.762   2.762   2.762   2.762   2.762   2.762   2.762   2.762   2.762   2.762   2.762   2.762   2.762   2.762   2.762   2.762   2.762   2.762   2.762   2.762   2.762   2.762   2.762   2.762   2.762   2.762
   198.14    2.762   2.762   2.762   2.762   2.762   2.762   2.762   2.762   2.762   2.762   2.762   2.762   2.762   2.762   2.762   2.762   2.762   2.762   2.762   2.762   2.762   2.762   2.762   2.762   2.762   2.762   2.762   2.762   2.762   2.762   2.762   2.762   2.762   2.762   2.762   2.762
   189.57    2.762   2.762   2.762   2.762   2.762   2.762   2.762   2.762   2.762   2.762   2.762   2.762   2.762   2.762   2.762   2.762   2.762   2.762   2.762   2.762   2.762   2.762   2.762   2.762   2.762   2.762   2.762   2.762   2.762   2.762   2.762   2.762   2.762   2.762   2.762   2.762
   181.00    2.762   2.762   2.762   2.762   2.762   2.762   2.762   2.762   2.762   2.762   2.762   2.762   2.762   2.762   2.762   2.762   2.762   2.762   2.762   2.762   2.762   2.762   2.762   2.762   2.762   2.762   2.762   2.762   2.762   2.762   2.762   2.762   2.762   2.762   2.762   2.762
   172.43    2.762   2.762   2.762   2.762   2.762   2.762   2.762   2.762   2.762   2.762   2.762   2.762   2.762   2.762   2.762   2.762   2.762   2.762   2.762   2.762   2.762   2.762   2.762   2.762   2.762   2.762   2.762   2.762   2.762   2.762   2.762   2.762   2.762   2.762   2.762   2.762
   163.86    2.762   2.762   2.762   2.762   2.762   2.762   2.762   2.762   2.762   2.762   2.762   2.762   2.762   2.762   2.762   2.762   2.762   2.762   2.762   2.762   2.762   2.762   2.762   2.762   2.762   2.762   2.762   2.762   2.762   2.762   2.762   2.762   2.762   2.762   2.762   2.762
   155.29    2.762   2.762   2.762   2.762   2.762   2.762   2.762   2.762   2.762   2.762   2.762   2.762   2.762   2.762   2.762   2.762   2.762   2.762   2.762   2.762   2.762   2.762   2.762   2.762   2.762   2.762   2.762   2.762   2.762   2.762   2.762   2.762   2.762   2.762   2.762   2.762
   146.71    2.762   2.762   2.762   2.762   2.762   2.762   2.762   2.762   2.762   2.762   2.762   2.762   2.762   2.762   2.762   2.762   2.762   2.762   2.762   2.762   2.762   2.762   2.762   2.762   2.762   2.762   2.762   2.762   2.762   2.762   2.762   2.762   2.762   2.762   2.762   2.762
   138.14    2.762   2.762   2.762   2.762   2.762   2.762   2.762   2.762   2.762   2.762   2.762   2.762   2.762   2.762   2.762   2.762   2.762   2.762   2.762   2.762   2.762   2.762   2.762   2.762   2.762   2.762   2.762   2.762   2.762   2.762   2.762   2.762   2.762   2.762   2.762   2.762
   129.57    2.762   2.762   2.762   2.762   2.762   2.762   2.762   2.762   2.762   2.762   2.762   2.762   2.762   2.762   2.762   2.762   2.762   2.762   2.762   2.762   2.762   2.762   2.762   2.762   2.762   2.762   2.762   2.762   2.762   2.762   2.762   2.762   2.762   2.762   2.762   2.762
   121.00    2.762   2.762   2.762   2.762   2.762   2.762   2.762   2.762   2.762   2.762   2.762   2.762   2.762   2.762   2.762   2.762   2.762   2.762   2.762   2.762   2.762   2.762   2.762   2.762   2.762   2.762   2.762   2.762   2.762   2.762   2.762   2.762   2.762   2.762   2.762   2.762
   112.43    2.762   2.762   2.762   2.762   2.762   2.762   2.762   2.762   2.762   2.762   2.762   2.762   2.762   2.762   2.762   2.762   2.762   2.762   2.762   2.762   2.762   2.762   2.762   2.762   2.762   2.762   2.762   2.762   2.762   2.762   2.762   2.762   2.762   2.762   2.762   2.762
   103.86    2.762   2.762   2.762   2.762   2.762   2.762   2.762   2.762   2.762   2.762   2.762   2.762   2.762   2.762   2.762   2.762   2.762   2.762   2.762   2.762   2.762   2.762   2.762   2.762   2.762   2.762   2.762   2.762   2.762   2.762   2.762   2.762   2.762   2.762   2.762   2.762
    95.29    2.762   2.762   2.762   2.762   2.762   2.762   2.762   2.762   2.762   2.762   2.762   2.762   2.762   2.762   2.762   2.762   2.762   2.762   2.762   2.762   2.762   2.762   2.762   2.762   2.762   2.762   2.762   2.762   2.762   2.762   2.762   2.762   2.762   2.762   2.762   2.762
    86.71    2.762   2.762   2.762   2.762   2.762   2.762   2.762   2.762   2.762   2.762   2.762   2.762   2.762   2.762   2.762   2.762   2.762   2.762   2.762   2.762   2.762   2.762   2.762   2.762   2.762   2.762   2.762   2.762   2.762   2.762   2.762   2.762   2.762   2.762   2.762   2.762
    78.14    2.762   2.762   2.762   2.762   2.762   2.762   2.762   2.762   2.762   2.762   2.762   2.762   2.762   2.762   2.762   2.762   2.762   2.762   2.762   2.762   2.762   2.762   2.762   2.762   2.762   2.762   2.762   2.762   2.762   2.762   2.762   2.762   2.762   2.762   2.762   2.762
    69.57    2.762   2.762   2.762   2.762   2.762   2.762   2.762   2.762   2.762   2.762   2.762   2.762   2.762   2.762   2.762   2.762   2.762   2.762   2.762   2.762   2.762   2.762   2.762   2.762   2.762   2.762   2.762   2.762   2.762   2.762   2.762   2.762   2.762   2.762   2.762   2.762
    61.00    2.762   2.762   2.762   2.762   2.762   2.762   2.762   2.762   2.762   2.762   2.762   2.762   2.762   2.762   2.762   2.762   2.762   2.762   2.762   2.762   2.762   2.762   2.762   2.762   2.762   2.762   2.762   2.762   2.762   2.762   2.762   2.762   2.762   2.762   2.762   2.762
    52.43    2.762   2.762   2.762   2.762   2.762   2.762   2.762   2.762   2.762   2.762   2.762   2.762   2.762   2.762   2.762   2.762   2.762   2.762   2.762   2.762   2.762   2.762   2.762   2.762   2.762   2.762   2.762   2.762   2.762   2.762   2.762   2.762   2.762   2.762   2.762   2.762
    43.86    2.762   2.762   2.762   2.762   2.762   2.762   2.762   2.762   2.762   2.762   2.762   2.762   2.762   2.762   2.762   2.762   2.762   2.762   2.762   2.762   2.762   2.762   2.762   2.762   2.762   2.762   2.762   2.762   2.762   2.762   2.762   2.762   2.762   2.762   2.762   2.762
    35.29    2.762   2.762   2.762   2.762   2.762   2.762   2.762   2.762   2.762   2.762   2.762   2.762   2.762   2.762   2.762   2.762   2.762   2.762   2.762   2.762   2.762   2.762   2.762   2.762   2.762   2.762   2.762   2.762   2.762   2.762   2.762   2.762   2.762   2.762   2.762   2.762
    26.71    2.762   2.762   2.762   2.762   2.762   2.762   2.762   2.762   2.762   2.762   2.762   2.762   2.762   2.762   2.762   2.762   2.762   2.762   2.762   2.762   2.762   2.762   2.762   2.762   2.762   2.762   2.762   2.762   2.762   2.762   2.762   2.762   2.762   2.762   2.762   2.762
    18.14    2.762   2.762   2.762   2.762   2.762   2.762   2.762   2.762   2.762   2.762   2.762   2.762   2.762   2.762   2.762   2.762   2.762   2.762   2.762   2.762   2.762   2.762   2.762   2.762   2.762   2.762   2.762   2.762   2.762   2.762   2.762   2.762   2.762   2.762   2.762   2.762
     9.57    2.762   2.762   2.762   2.762   2.762   2.762   2.762   2.762   2.762   2.762   2.762   2.762   2.762   2.762   2.762   2.762   2.762   2.762   2.762   2.762   2.762   2.762   2.762   2.762   2.762   2.762   2.762   2.762   2.762   2.762   2.762   2.762   2.762   2.762   2.762   2.762
     1.00    2.762   2.762   2.762   2.762   2.762   2.762   2.762   2.762   2.762   2.762   2.762   2.762   2.762   2.762   2.762   2.762   2.762   2.762   2.762   2.762   2.762   2.762   2.762   2.762   2.762   2.762   2.762   2.762   2.762   2.762   2.762   2.762   2.762   2.762   2.762   2.762

   Mean standard deviation across all grid points:
      u component:    2.767 m/s
      v component:    2.762 m/s
      w component:    2.762 m/s


U-component (X) statistics from the interpolated hub point:

   Mean =  15.9569 m/s
   TI   =  13.2906 %


Normalizing Parameters for Binary Data (approximate statistics):

   UBar  =  15.9579 m/s
   TI(u) =  15.4004 %
   TI(v) =  17.3062 %
   TI(w) =  17.3062 %

   Height Offset =   0.0000 m
   Grid Base     =   1.0000 m

Creating a PERIODIC output file.


Processing complete.  115.89 CPU seconds used.
