
This summary file was generated by TurbSim (v2.00.07a-bjj, 14-Jun-2016) on 03-Nov-2023 at 03:21:07.


Runtime Options:

      2601  Random seed #1
    RANLUX  Type of random number generator
         F  Output binary HH turbulence parameters?
         F  Output formatted turbulence parameters?
         F  Output AeroDyn HH files?
         F  Output AeroDyn FF files?
         T  Output BLADED FF files?
         F  Output tower data?
         F  Output formatted FF files?
         F  Output coherent turbulence time step file?
         T  Clockwise rotation when looking downwind?
 0 -  NONE  IEC turbulence models scaled to exact specified standard deviation


Turbine/Model Specifications:

        36  Vertical grid-point matrix dimension
        36  Horizontal grid-point matrix dimension
     0.100  Time step [seconds]
   660.000  Analysis time [seconds]
   660.000  Usable output time [seconds]
   151.000  Hub height [m]
   300.000  Grid height [m]
   300.000  Grid width [m]
     0.000  Vertical flow angle [degrees]
     0.000  Horizontal flow angle [degrees]


Meteorological Boundary Conditions:

    IECVKM  IEC von Karman spectral model
         1  IEC standard: IEC 61400-1 Ed. 3: 2005
         A  IEC turbulence characteristic
       NTM  IEC Normal Turbulence Model
       N/A  IEC Extreme Turbulence Model (ETM) "c" parameter [m/s]
       PL   Wind profile type
   153.000  Reference height [m]
    13.000  Reference wind speed [m/s]
       N/A  Jet height [m]
     0.200  Power law exponent
     0.030  Surface roughness length [m]


Non-IEC Meteorological Boundary Conditions:

       N/A  Site latitude [degrees]
       N/A  Gradient Richardson number
       N/A  Friction or shear velocity [m/s]
       N/A  Mixing layer depth [m]
       N/A  Mean hub u'w' Reynolds stress
       N/A  Mean hub u'v' Reynolds stress
       N/A  Mean hub v'w' Reynolds stress


Spatial Coherence Models:

       IEC  u-component coherence model
      NONE  v-component coherence model
      NONE  w-component coherence model
(   12.000, 0.353E-03)  u-component coherence parameters
                   N/A  v-component coherence parameters
                   N/A  w-component coherence parameters
       N/A  Coherence exponent


You have requested that the following file(s) be generated:

   G:\2023\OpenWECDV1.0.0_x64\BaseLIne\wind\WindL_V_13_seed_2601.wnd (AeroDyn/BLADED full-field wnd file)


Turbulence Simulation Scaling Parameter Summary:

   Turbulence model used                            =  IEC von Karman
   Turbulence characteristic                        =  A
   IEC turbulence type                              =  Normal Turbulence Model
   IEC standard                                     =  IEC 61400-1 Ed. 3: 2005
   Mean wind speed at hub height                    =   12.966 m/s
   Expected value of turbulence intensity at 15 m/s =   16.000%
   Characteristic value of standard deviation       =    2.452 m/s
   Turbulence scale                                 =   42.000 m
   Isotropic integral scale                         =  147.000 m
   Characteristic value of hub turbulence intensity =   18.910%
   Gradient Richardson number                       =    0.000

   Wind profile type                                =  Power law
   Power law exponent                               =    0.200
   Mean shear across rotor disk                     =    0.034 (m/s)/m
   Assumed rotor diameter                           =  300.000 m
   Surface roughness length                         =    0.030 m

   Nyquist frequency of turbulent wind field        =    5.000 Hz

   Number of time steps in the FFT                  =     6600
   Number of time steps output                      =     6600
   Number of points simulated                       =     1297


Mean Flow Angles:

   Vertical   =   0.0 degrees
   Horizontal =   0.0 degrees

Mean Wind Speed Profile:

   Height    Wind Speed   Horizontal Angle  Vertical Angle  U-comp (X)   V-comp (Y)   W-comp (Z)
     (m)        (m/s)         (degrees)       (degrees)       (m/s)        (m/s)        (m/s)   
   ------    ----------   ----------------  --------------  ----------   ----------   ----------
    301.0       14.88            0.00            0.00         14.88         0.00         0.00
    292.4       14.80            0.00            0.00         14.80         0.00         0.00
    283.9       14.71            0.00            0.00         14.71         0.00         0.00
    275.3       14.62            0.00            0.00         14.62         0.00         0.00
    266.7       14.53            0.00            0.00         14.53         0.00         0.00
    258.1       14.43            0.00            0.00         14.43         0.00         0.00
    249.6       14.34            0.00            0.00         14.34         0.00         0.00
    241.0       14.24            0.00            0.00         14.24         0.00         0.00
    232.4       14.13            0.00            0.00         14.13         0.00         0.00
    223.9       14.03            0.00            0.00         14.03         0.00         0.00
    215.3       13.92            0.00            0.00         13.92         0.00         0.00
    206.7       13.81            0.00            0.00         13.81         0.00         0.00
    198.1       13.69            0.00            0.00         13.69         0.00         0.00
    189.6       13.57            0.00            0.00         13.57         0.00         0.00
    181.0       13.44            0.00            0.00         13.44         0.00         0.00
    172.4       13.31            0.00            0.00         13.31         0.00         0.00
    163.9       13.18            0.00            0.00         13.18         0.00         0.00
    155.3       13.04            0.00            0.00         13.04         0.00         0.00
    151.0       12.97            0.00            0.00         12.97         0.00         0.00
    146.7       12.89            0.00            0.00         12.89         0.00         0.00
    138.1       12.74            0.00            0.00         12.74         0.00         0.00
    129.6       12.57            0.00            0.00         12.57         0.00         0.00
    121.0       12.40            0.00            0.00         12.40         0.00         0.00
    112.4       12.22            0.00            0.00         12.22         0.00         0.00
    103.9       12.03            0.00            0.00         12.03         0.00         0.00
     95.3       11.83            0.00            0.00         11.83         0.00         0.00
     86.7       11.60            0.00            0.00         11.60         0.00         0.00
     78.1       11.37            0.00            0.00         11.37         0.00         0.00
     69.6       11.10            0.00            0.00         11.10         0.00         0.00
     61.0       10.82            0.00            0.00         10.82         0.00         0.00
     52.4       10.49            0.00            0.00         10.49         0.00         0.00
     43.9       10.13            0.00            0.00         10.13         0.00         0.00
     35.3        9.69            0.00            0.00          9.69         0.00         0.00
     26.7        9.17            0.00            0.00          9.17         0.00         0.00
     18.1        8.49            0.00            0.00          8.49         0.00         0.00
      9.6        7.47            0.00            0.00          7.47         0.00         0.00
      1.0        4.75            0.00            0.00          4.75         0.00         0.00


Harvested Random Seeds after Generation of the Random Numbers:

    119307688 K 1
            0 K 2


Hub-Height Simulated Turbulence Statistical Summary:

   Type of Wind        Min (m/s)   Mean (m/s)    Max (m/s)  Sigma (m/s)       TI (%)
   ----------------    ---------   ----------    ---------  -----------       ------
   Longitudinal (u)         3.04        12.97        19.21        2.258       17.413
   Lateral (v)             -6.69        -0.00         8.32        2.408       18.570
   Vertical (w)            -7.02        -0.00         7.16        2.408       18.570
   U component              3.04        12.97        19.21        2.258       17.413
   V component             -6.69        -0.00         8.32        2.408       18.570
   W component             -7.02        -0.00         7.16        2.408       18.570
   Horizontal (U&V)         4.01        13.20        19.32        2.204       16.701
   Total                    4.03        13.41        19.94        2.202       16.411

                       Min Reynolds     Mean Reynolds    Max Reynolds    Correlation
   Product             Stress (m/s)^2   Stress (m/s)^2   Stress (m/s)^2  Coefficient
   ----------------    --------------   --------------   --------------  -----------
   u'w'                    -31.306             0.256            26.464         0.047
   u'v'                    -38.022            -1.211            24.650        -0.223
   v'w'                    -32.974            -0.691            20.108        -0.119


   Friction Velocity (Ustar)  =      0.506 m/s
   Maximum Instantaneous TKE  =     57.812 (m/s)^2
   Maximum Instantaneous CTKE =     20.898 (m/s)^2


Grid Point Variance Summary:

   Y-coord -150.00 -141.43 -132.86 -124.29 -115.71 -107.14  -98.57  -90.00  -81.43  -72.86  -64.29  -55.71  -47.14  -38.57  -30.00  -21.43  -12.86   -4.29    4.29   12.86   21.43   30.00   38.57   47.14   55.71   64.29   72.86   81.43   90.00   98.57  107.14  115.71  124.29  132.86  141.43  150.00

   Height   Standard deviation at grid points for the u component:
   301.00    2.275   2.195   2.393   2.365   2.352   2.224   2.426   2.417   2.525   2.556   2.522   2.411   2.581   2.356   2.415   2.366   2.441   2.295   2.404   2.420   2.414   2.344   2.389   2.500   2.509   2.687   2.596   2.788   2.854   2.923   2.873   2.807   2.880   2.881   2.739   2.720
   292.43    2.343   2.266   2.468   2.534   2.362   2.223   2.283   2.426   2.534   2.494   2.516   2.364   2.431   2.353   2.501   2.368   2.325   2.327   2.409   2.287   2.186   2.239   2.493   2.660   2.785   2.870   2.776   2.788   2.722   2.789   2.958   2.806   2.726   2.783   2.694   2.530
   283.86    2.442   2.394   2.299   2.435   2.364   2.264   2.250   2.504   2.588   2.478   2.365   2.338   2.340   2.362   2.296   2.438   2.431   2.411   2.375   2.310   2.342   2.280   2.551   2.701   2.887   2.798   2.729   2.705   2.793   2.846   2.744   2.684   2.733   2.726   2.836   2.542
   275.29    2.430   2.276   2.275   2.289   2.223   2.178   2.139   2.441   2.541   2.548   2.320   2.428   2.297   2.254   2.285   2.421   2.519   2.432   2.394   2.164   2.304   2.319   2.497   2.669   2.770   2.670   2.619   2.671   2.567   2.733   2.704   2.642   2.743   2.796   2.784   2.734
   266.71    2.296   2.256   2.183   2.263   2.164   2.207   2.318   2.348   2.507   2.443   2.587   2.449   2.447   2.368   2.372   2.351   2.457   2.369   2.425   2.332   2.346   2.396   2.443   2.473   2.618   2.606   2.691   2.736   2.690   2.511   2.799   2.747   2.688   2.727   2.770   2.665
   258.14    2.169   2.223   2.251   2.153   2.171   2.248   2.316   2.425   2.545   2.691   2.720   2.532   2.425   2.454   2.394   2.386   2.277   2.436   2.422   2.324   2.272   2.458   2.387   2.438   2.448   2.618   2.617   2.627   2.685   2.765   2.815   2.683   2.665   2.614   2.614   2.503
   249.57    2.009   2.092   2.078   2.190   2.223   2.273   2.376   2.493   2.567   2.667   2.818   2.719   2.635   2.580   2.424   2.444   2.382   2.450   2.404   2.400   2.483   2.360   2.458   2.318   2.408   2.521   2.607   2.740   2.703   2.795   2.695   2.795   2.715   2.657   2.487   2.604
   241.00    2.161   2.102   2.166   2.152   2.215   2.399   2.441   2.521   2.551   2.650   2.706   2.695   2.801   2.708   2.531   2.498   2.509   2.541   2.578   2.513   2.527   2.524   2.403   2.354   2.465   2.682   2.664   2.738   2.698   2.662   2.662   2.775   2.763   2.701   2.478   2.394
   232.43    2.182   2.163   2.153   2.262   2.417   2.364   2.397   2.462   2.455   2.595   2.785   2.802   2.751   2.722   2.569   2.593   2.552   2.633   2.587   2.511   2.438   2.278   2.371   2.494   2.591   2.562   2.662   2.583   2.627   2.639   2.664   2.744   2.795   2.748   2.520   2.531
   223.86    2.225   2.169   2.146   2.273   2.358   2.323   2.346   2.242   2.384   2.526   2.687   2.758   2.670   2.485   2.520   2.595   2.659   2.528   2.590   2.606   2.614   2.293   2.426   2.409   2.461   2.479   2.628   2.596   2.723   2.651   2.767   2.638   2.720   2.629   2.714   2.554
   215.29    2.136   2.207   2.044   2.281   2.298   2.396   2.372   2.446   2.479   2.519   2.538   2.584   2.659   2.399   2.478   2.449   2.414   2.395   2.537   2.536   2.553   2.601   2.312   2.257   2.417   2.579   2.562   2.796   2.722   2.647   2.701   2.648   2.710   2.687   2.564   2.597
   206.71    2.305   2.430   2.270   2.161   2.278   2.288   2.342   2.435   2.489   2.603   2.474   2.570   2.428   2.257   2.311   2.230   2.345   2.331   2.293   2.345   2.655   2.610   2.181   2.181   2.445   2.480   2.519   2.640   2.772   2.862   2.765   2.666   2.764   2.722   2.733   2.730
   198.14    2.242   2.310   2.439   2.267   2.222   2.340   2.273   2.417   2.385   2.487   2.513   2.584   2.432   2.390   2.247   2.234   2.376   2.257   2.407   2.511   2.522   2.503   2.237   2.302   2.417   2.355   2.531   2.699   2.712   2.591   2.548   2.616   2.677   2.588   2.678   2.726
   189.57    2.443   2.221   2.243   2.304   2.089   2.224   2.306   2.459   2.459   2.310   2.405   2.487   2.489   2.471   2.256   2.390   2.220   2.296   2.474   2.494   2.458   2.469   2.445   2.287   2.262   2.355   2.331   2.388   2.572   2.554   2.609   2.447   2.510   2.604   2.686   2.668
   181.00    2.192   2.258   2.135   2.246   2.186   2.361   2.324   2.325   2.134   2.380   2.344   2.350   2.415   2.510   2.151   2.314   2.269   2.435   2.462   2.413   2.563   2.344   2.427   2.359   2.216   2.417   2.336   2.421   2.469   2.420   2.588   2.536   2.545   2.595   2.701   2.673
   172.43    2.070   2.145   2.223   2.282   2.163   2.176   2.291   2.189   2.106   2.164   2.254   2.204   2.207   2.194   2.154   2.288   2.150   2.334   2.390   2.479   2.551   2.463   2.514   2.417   2.394   2.486   2.506   2.510   2.586   2.509   2.507   2.516   2.603   2.471   2.589   2.508
   163.86    2.355   2.193   2.177   2.150   2.100   2.171   2.234   2.104   2.100   1.998   1.960   2.025   2.125   2.150   2.040   2.104   2.205   2.282   2.250   2.297   2.409   2.536   2.565   2.583   2.524   2.602   2.395   2.397   2.365   2.460   2.482   2.469   2.519   2.565   2.381   2.265
   155.29    2.460   2.280   2.258   2.391   2.258   2.244   2.189   2.034   2.056   2.040   2.000   2.074   2.067   2.031   2.084   2.095   2.261   2.160   2.191   2.331   2.313   2.474   2.591   2.505   2.435   2.378   2.334   2.359   2.398   2.407   2.422   2.459   2.420   2.496   2.496   2.344
   146.71    2.433   2.581   2.396   2.371   2.277   2.115   2.053   1.905   2.098   2.045   1.992   2.053   2.073   1.934   2.171   2.206   2.297   2.316   2.261   2.302   2.411   2.464   2.502   2.401   2.282   2.289   2.147   2.283   2.370   2.470   2.462   2.274   2.319   2.318   2.495   2.435
   138.14    2.490   2.474   2.367   2.294   2.248   2.109   1.969   2.003   2.115   2.221   2.135   2.018   2.021   2.031   2.096   2.209   2.209   2.216   2.168   2.170   2.162   2.221   2.294   2.193   2.062   2.224   2.208   2.145   2.161   2.387   2.420   2.229   2.304   2.430   2.533   2.524
   129.57    2.485   2.393   2.267   2.381   2.112   1.964   2.067   2.230   2.244   2.283   2.213   2.174   2.230   2.129   2.141   2.148   2.093   2.064   2.104   2.023   2.149   2.188   2.130   2.071   2.069   2.061   2.120   2.054   2.111   2.247   2.362   2.384   2.258   2.217   2.381   2.474
   121.00    2.530   2.538   2.202   2.099   2.153   2.129   2.222   2.382   2.376   2.323   2.180   2.321   2.230   2.107   2.222   2.231   2.205   2.010   2.187   2.090   2.255   2.298   2.199   2.088   2.163   2.043   1.866   2.048   2.136   2.204   2.195   2.203   2.259   2.251   2.349   2.399
   112.43    2.419   2.205   2.292   2.097   2.043   2.075   2.314   2.264   2.450   2.310   2.235   2.119   2.124   2.064   2.310   2.298   2.236   2.049   2.166   2.141   2.183   2.313   2.083   2.071   2.188   2.066   2.160   2.154   2.129   2.178   2.150   2.246   2.194   2.252   2.295   2.311
   103.86    2.265   2.417   2.318   2.303   2.174   2.326   2.259   2.284   2.204   2.278   2.278   2.136   2.134   2.123   2.248   2.200   2.293   2.292   2.271   2.140   2.205   2.103   2.279   2.272   2.240   2.204   2.243   2.307   2.215   2.120   2.151   2.269   2.162   2.195   2.112   2.010
    95.29    2.154   2.337   2.186   2.265   2.327   2.430   2.132   2.009   1.926   2.017   2.132   2.220   2.163   2.197   2.133   2.302   2.270   2.236   2.217   2.158   2.182   2.067   2.325   2.141   2.232   2.167   2.138   2.228   2.097   2.184   2.193   2.297   2.224   2.216   2.202   2.144
    86.71    2.239   2.172   2.255   2.357   2.312   2.320   2.155   2.160   2.074   2.113   2.232   2.100   2.080   2.045   2.049   2.220   2.147   2.131   2.208   2.201   2.107   2.108   2.249   2.091   2.099   2.101   2.184   2.089   2.104   2.207   2.217   2.338   2.351   2.307   2.300   2.269
    78.14    2.116   2.185   2.215   2.181   2.245   2.203   2.063   2.080   2.127   2.138   2.104   2.144   1.921   1.892   1.939   2.111   2.259   2.227   2.312   2.164   2.101   2.026   2.034   1.996   2.008   1.908   2.221   2.124   2.272   2.305   2.330   2.307   2.355   2.222   2.105   2.112
    69.57    2.212   2.229   2.248   2.270   2.223   2.176   2.113   2.190   2.139   2.183   2.085   1.979   1.920   1.889   1.897   2.051   2.177   2.253   2.183   2.122   2.124   2.116   2.063   1.995   2.046   2.069   2.140   2.260   2.346   2.480   2.468   2.243   2.298   2.105   1.962   1.998
    61.00    2.201   2.133   1.990   2.186   2.214   2.300   2.279   2.213   2.353   2.260   2.213   2.178   2.033   1.978   1.923   1.911   1.986   2.034   2.079   2.183   2.252   2.298   2.042   1.880   1.892   1.997   2.082   2.139   2.313   2.322   2.465   2.327   2.246   2.238   2.025   2.038
    52.43    2.146   2.181   2.175   2.142   2.333   2.438   2.467   2.367   2.289   2.265   2.286   2.241   2.117   2.075   1.988   1.937   1.912   1.991   2.048   2.178   2.232   2.244   2.231   2.031   1.893   1.986   2.097   2.106   2.352   2.348   2.437   2.432   2.346   2.252   2.014   2.031
    43.86    2.203   2.247   2.246   2.233   2.397   2.429   2.617   2.501   2.471   2.522   2.290   2.067   2.222   2.087   1.915   1.993   2.035   1.971   2.058   2.167   2.162   2.144   2.207   2.179   2.044   1.971   2.099   2.293   2.298   2.402   2.403   2.316   2.487   2.380   2.214   2.203
    35.29    2.410   2.348   2.137   2.357   2.408   2.468   2.613   2.680   2.573   2.445   2.375   2.154   2.210   1.923   2.006   1.896   2.028   1.987   2.064   2.210   2.167   2.230   2.187   1.921   1.978   2.041   2.208   2.265   2.276   2.326   2.260   2.324   2.464   2.479   2.291   2.261
    26.71    2.430   2.458   2.413   2.496   2.456   2.435   2.545   2.714   2.508   2.473   2.517   2.275   2.363   2.022   1.997   2.083   1.986   2.120   2.098   2.214   2.171   2.060   2.175   2.067   2.150   2.144   2.043   2.179   2.332   2.418   2.443   2.419   2.344   2.293   2.223   2.218
    18.14    2.511   2.444   2.428   2.392   2.363   2.481   2.548   2.546   2.593   2.446   2.373   2.322   2.364   2.289   2.369   2.158   2.090   1.957   2.173   2.163   2.192   2.278   2.058   2.126   2.235   2.228   2.131   2.295   2.311   2.481   2.431   2.290   2.244   2.321   2.147   2.222
     9.57    2.509   2.652   2.499   2.493   2.515   2.453   2.505   2.460   2.562   2.594   2.445   2.434   2.500   2.447   2.316   2.235   2.183   2.106   1.998   2.091   2.101   2.255   2.121   2.112   2.230   2.308   2.297   2.370   2.413   2.434   2.319   2.169   2.257   2.173   2.136   2.182
     1.00    2.393   2.466   2.411   2.535   2.587   2.655   2.462   2.451   2.541   2.498   2.504   2.378   2.425   2.550   2.419   2.304   2.249   2.002   1.995   2.136   2.110   2.099   2.172   2.109   2.325   2.283   2.178   2.263   2.240   2.240   2.201   2.141   2.234   2.207   2.034   2.236

   Height   Standard deviation at grid points for the v component:
   301.00    2.408   2.408   2.408   2.408   2.408   2.408   2.408   2.408   2.408   2.408   2.408   2.408   2.408   2.408   2.408   2.408   2.408   2.408   2.408   2.408   2.408   2.408   2.408   2.408   2.408   2.408   2.408   2.408   2.408   2.408   2.408   2.408   2.408   2.408   2.408   2.408
   292.43    2.408   2.408   2.408   2.408   2.408   2.408   2.408   2.408   2.408   2.408   2.408   2.408   2.408   2.408   2.408   2.408   2.408   2.408   2.408   2.408   2.408   2.408   2.408   2.408   2.408   2.408   2.408   2.408   2.408   2.408   2.408   2.408   2.408   2.408   2.408   2.408
   283.86    2.408   2.408   2.408   2.408   2.408   2.408   2.408   2.408   2.408   2.408   2.408   2.408   2.408   2.408   2.408   2.408   2.408   2.408   2.408   2.408   2.408   2.408   2.408   2.408   2.408   2.408   2.408   2.408   2.408   2.408   2.408   2.408   2.408   2.408   2.408   2.408
   275.29    2.408   2.408   2.408   2.408   2.408   2.408   2.408   2.408   2.408   2.408   2.408   2.408   2.408   2.408   2.408   2.408   2.408   2.408   2.408   2.408   2.408   2.408   2.408   2.408   2.408   2.408   2.408   2.408   2.408   2.408   2.408   2.408   2.408   2.408   2.408   2.408
   266.71    2.408   2.408   2.408   2.408   2.408   2.408   2.408   2.408   2.408   2.408   2.408   2.408   2.408   2.408   2.408   2.408   2.408   2.408   2.408   2.408   2.408   2.408   2.408   2.408   2.408   2.408   2.408   2.408   2.408   2.408   2.408   2.408   2.408   2.408   2.408   2.408
   258.14    2.408   2.408   2.408   2.408   2.408   2.408   2.408   2.408   2.408   2.408   2.408   2.408   2.408   2.408   2.408   2.408   2.408   2.408   2.408   2.408   2.408   2.408   2.408   2.408   2.408   2.408   2.408   2.408   2.408   2.408   2.408   2.408   2.408   2.408   2.408   2.408
   249.57    2.408   2.408   2.408   2.408   2.408   2.408   2.408   2.408   2.408   2.408   2.408   2.408   2.408   2.408   2.408   2.408   2.408   2.408   2.408   2.408   2.408   2.408   2.408   2.408   2.408   2.408   2.408   2.408   2.408   2.408   2.408   2.408   2.408   2.408   2.408   2.408
   241.00    2.408   2.408   2.408   2.408   2.408   2.408   2.408   2.408   2.408   2.408   2.408   2.408   2.408   2.408   2.408   2.408   2.408   2.408   2.408   2.408   2.408   2.408   2.408   2.408   2.408   2.408   2.408   2.408   2.408   2.408   2.408   2.408   2.408   2.408   2.408   2.408
   232.43    2.408   2.408   2.408   2.408   2.408   2.408   2.408   2.408   2.408   2.408   2.408   2.408   2.408   2.408   2.408   2.408   2.408   2.408   2.408   2.408   2.408   2.408   2.408   2.408   2.408   2.408   2.408   2.408   2.408   2.408   2.408   2.408   2.408   2.408   2.408   2.408
   223.86    2.408   2.408   2.408   2.408   2.408   2.408   2.408   2.408   2.408   2.408   2.408   2.408   2.408   2.408   2.408   2.408   2.408   2.408   2.408   2.408   2.408   2.408   2.408   2.408   2.408   2.408   2.408   2.408   2.408   2.408   2.408   2.408   2.408   2.408   2.408   2.408
   215.29    2.408   2.408   2.408   2.408   2.408   2.408   2.408   2.408   2.408   2.408   2.408   2.408   2.408   2.408   2.408   2.408   2.408   2.408   2.408   2.408   2.408   2.408   2.408   2.408   2.408   2.408   2.408   2.408   2.408   2.408   2.408   2.408   2.408   2.408   2.408   2.408
   206.71    2.408   2.408   2.408   2.408   2.408   2.408   2.408   2.408   2.408   2.408   2.408   2.408   2.408   2.408   2.408   2.408   2.408   2.408   2.408   2.408   2.408   2.408   2.408   2.408   2.408   2.408   2.408   2.408   2.408   2.408   2.408   2.408   2.408   2.408   2.408   2.408
   198.14    2.408   2.408   2.408   2.408   2.408   2.408   2.408   2.408   2.408   2.408   2.408   2.408   2.408   2.408   2.408   2.408   2.408   2.408   2.408   2.408   2.408   2.408   2.408   2.408   2.408   2.408   2.408   2.408   2.408   2.408   2.408   2.408   2.408   2.408   2.408   2.408
   189.57    2.408   2.408   2.408   2.408   2.408   2.408   2.408   2.408   2.408   2.408   2.408   2.408   2.408   2.408   2.408   2.408   2.408   2.408   2.408   2.408   2.408   2.408   2.408   2.408   2.408   2.408   2.408   2.408   2.408   2.408   2.408   2.408   2.408   2.408   2.408   2.408
   181.00    2.408   2.408   2.408   2.408   2.408   2.408   2.408   2.408   2.408   2.408   2.408   2.408   2.408   2.408   2.408   2.408   2.408   2.408   2.408   2.408   2.408   2.408   2.408   2.408   2.408   2.408   2.408   2.408   2.408   2.408   2.408   2.408   2.408   2.408   2.408   2.408
   172.43    2.408   2.408   2.408   2.408   2.408   2.408   2.408   2.408   2.408   2.408   2.408   2.408   2.408   2.408   2.408   2.408   2.408   2.408   2.408   2.408   2.408   2.408   2.408   2.408   2.408   2.408   2.408   2.408   2.408   2.408   2.408   2.408   2.408   2.408   2.408   2.408
   163.86    2.408   2.408   2.408   2.408   2.408   2.408   2.408   2.408   2.408   2.408   2.408   2.408   2.408   2.408   2.408   2.408   2.408   2.408   2.408   2.408   2.408   2.408   2.408   2.408   2.408   2.408   2.408   2.408   2.408   2.408   2.408   2.408   2.408   2.408   2.408   2.408
   155.29    2.408   2.408   2.408   2.408   2.408   2.408   2.408   2.408   2.408   2.408   2.408   2.408   2.408   2.408   2.408   2.408   2.408   2.408   2.408   2.408   2.408   2.408   2.408   2.408   2.408   2.408   2.408   2.408   2.408   2.408   2.408   2.408   2.408   2.408   2.408   2.408
   146.71    2.408   2.408   2.408   2.408   2.408   2.408   2.408   2.408   2.408   2.408   2.408   2.408   2.408   2.408   2.408   2.408   2.408   2.408   2.408   2.408   2.408   2.408   2.408   2.408   2.408   2.408   2.408   2.408   2.408   2.408   2.408   2.408   2.408   2.408   2.408   2.408
   138.14    2.408   2.408   2.408   2.408   2.408   2.408   2.408   2.408   2.408   2.408   2.408   2.408   2.408   2.408   2.408   2.408   2.408   2.408   2.408   2.408   2.408   2.408   2.408   2.408   2.408   2.408   2.408   2.408   2.408   2.408   2.408   2.408   2.408   2.408   2.408   2.408
   129.57    2.408   2.408   2.408   2.408   2.408   2.408   2.408   2.408   2.408   2.408   2.408   2.408   2.408   2.408   2.408   2.408   2.408   2.408   2.408   2.408   2.408   2.408   2.408   2.408   2.408   2.408   2.408   2.408   2.408   2.408   2.408   2.408   2.408   2.408   2.408   2.408
   121.00    2.408   2.408   2.408   2.408   2.408   2.408   2.408   2.408   2.408   2.408   2.408   2.408   2.408   2.408   2.408   2.408   2.408   2.408   2.408   2.408   2.408   2.408   2.408   2.408   2.408   2.408   2.408   2.408   2.408   2.408   2.408   2.408   2.408   2.408   2.408   2.408
   112.43    2.408   2.408   2.408   2.408   2.408   2.408   2.408   2.408   2.408   2.408   2.408   2.408   2.408   2.408   2.408   2.408   2.408   2.408   2.408   2.408   2.408   2.408   2.408   2.408   2.408   2.408   2.408   2.408   2.408   2.408   2.408   2.408   2.408   2.408   2.408   2.408
   103.86    2.408   2.408   2.408   2.408   2.408   2.408   2.408   2.408   2.408   2.408   2.408   2.408   2.408   2.408   2.408   2.408   2.408   2.408   2.408   2.408   2.408   2.408   2.408   2.408   2.408   2.408   2.408   2.408   2.408   2.408   2.408   2.408   2.408   2.408   2.408   2.408
    95.29    2.408   2.408   2.408   2.408   2.408   2.408   2.408   2.408   2.408   2.408   2.408   2.408   2.408   2.408   2.408   2.408   2.408   2.408   2.408   2.408   2.408   2.408   2.408   2.408   2.408   2.408   2.408   2.408   2.408   2.408   2.408   2.408   2.408   2.408   2.408   2.408
    86.71    2.408   2.408   2.408   2.408   2.408   2.408   2.408   2.408   2.408   2.408   2.408   2.408   2.408   2.408   2.408   2.408   2.408   2.408   2.408   2.408   2.408   2.408   2.408   2.408   2.408   2.408   2.408   2.408   2.408   2.408   2.408   2.408   2.408   2.408   2.408   2.408
    78.14    2.408   2.408   2.408   2.408   2.408   2.408   2.408   2.408   2.408   2.408   2.408   2.408   2.408   2.408   2.408   2.408   2.408   2.408   2.408   2.408   2.408   2.408   2.408   2.408   2.408   2.408   2.408   2.408   2.408   2.408   2.408   2.408   2.408   2.408   2.408   2.408
    69.57    2.408   2.408   2.408   2.408   2.408   2.408   2.408   2.408   2.408   2.408   2.408   2.408   2.408   2.408   2.408   2.408   2.408   2.408   2.408   2.408   2.408   2.408   2.408   2.408   2.408   2.408   2.408   2.408   2.408   2.408   2.408   2.408   2.408   2.408   2.408   2.408
    61.00    2.408   2.408   2.408   2.408   2.408   2.408   2.408   2.408   2.408   2.408   2.408   2.408   2.408   2.408   2.408   2.408   2.408   2.408   2.408   2.408   2.408   2.408   2.408   2.408   2.408   2.408   2.408   2.408   2.408   2.408   2.408   2.408   2.408   2.408   2.408   2.408
    52.43    2.408   2.408   2.408   2.408   2.408   2.408   2.408   2.408   2.408   2.408   2.408   2.408   2.408   2.408   2.408   2.408   2.408   2.408   2.408   2.408   2.408   2.408   2.408   2.408   2.408   2.408   2.408   2.408   2.408   2.408   2.408   2.408   2.408   2.408   2.408   2.408
    43.86    2.408   2.408   2.408   2.408   2.408   2.408   2.408   2.408   2.408   2.408   2.408   2.408   2.408   2.408   2.408   2.408   2.408   2.408   2.408   2.408   2.408   2.408   2.408   2.408   2.408   2.408   2.408   2.408   2.408   2.408   2.408   2.408   2.408   2.408   2.408   2.408
    35.29    2.408   2.408   2.408   2.408   2.408   2.408   2.408   2.408   2.408   2.408   2.408   2.408   2.408   2.408   2.408   2.408   2.408   2.408   2.408   2.408   2.408   2.408   2.408   2.408   2.408   2.408   2.408   2.408   2.408   2.408   2.408   2.408   2.408   2.408   2.408   2.408
    26.71    2.408   2.408   2.408   2.408   2.408   2.408   2.408   2.408   2.408   2.408   2.408   2.408   2.408   2.408   2.408   2.408   2.408   2.408   2.408   2.408   2.408   2.408   2.408   2.408   2.408   2.408   2.408   2.408   2.408   2.408   2.408   2.408   2.408   2.408   2.408   2.408
    18.14    2.408   2.408   2.408   2.408   2.408   2.408   2.408   2.408   2.408   2.408   2.408   2.408   2.408   2.408   2.408   2.408   2.408   2.408   2.408   2.408   2.408   2.408   2.408   2.408   2.408   2.408   2.408   2.408   2.408   2.408   2.408   2.408   2.408   2.408   2.408   2.408
     9.57    2.408   2.408   2.408   2.408   2.408   2.408   2.408   2.408   2.408   2.408   2.408   2.408   2.408   2.408   2.408   2.408   2.408   2.408   2.408   2.408   2.408   2.408   2.408   2.408   2.408   2.408   2.408   2.408   2.408   2.408   2.408   2.408   2.408   2.408   2.408   2.408
     1.00    2.408   2.408   2.408   2.408   2.408   2.408   2.408   2.408   2.408   2.408   2.408   2.408   2.408   2.408   2.408   2.408   2.408   2.408   2.408   2.408   2.408   2.408   2.408   2.408   2.408   2.408   2.408   2.408   2.408   2.408   2.408   2.408   2.408   2.408   2.408   2.408

   Height   Standard deviation at grid points for the w component:
   301.00    2.408   2.408   2.408   2.408   2.408   2.408   2.408   2.408   2.408   2.408   2.408   2.408   2.408   2.408   2.408   2.408   2.408   2.408   2.408   2.408   2.408   2.408   2.408   2.408   2.408   2.408   2.408   2.408   2.408   2.408   2.408   2.408   2.408   2.408   2.408   2.408
   292.43    2.408   2.408   2.408   2.408   2.408   2.408   2.408   2.408   2.408   2.408   2.408   2.408   2.408   2.408   2.408   2.408   2.408   2.408   2.408   2.408   2.408   2.408   2.408   2.408   2.408   2.408   2.408   2.408   2.408   2.408   2.408   2.408   2.408   2.408   2.408   2.408
   283.86    2.408   2.408   2.408   2.408   2.408   2.408   2.408   2.408   2.408   2.408   2.408   2.408   2.408   2.408   2.408   2.408   2.408   2.408   2.408   2.408   2.408   2.408   2.408   2.408   2.408   2.408   2.408   2.408   2.408   2.408   2.408   2.408   2.408   2.408   2.408   2.408
   275.29    2.408   2.408   2.408   2.408   2.408   2.408   2.408   2.408   2.408   2.408   2.408   2.408   2.408   2.408   2.408   2.408   2.408   2.408   2.408   2.408   2.408   2.408   2.408   2.408   2.408   2.408   2.408   2.408   2.408   2.408   2.408   2.408   2.408   2.408   2.408   2.408
   266.71    2.408   2.408   2.408   2.408   2.408   2.408   2.408   2.408   2.408   2.408   2.408   2.408   2.408   2.408   2.408   2.408   2.408   2.408   2.408   2.408   2.408   2.408   2.408   2.408   2.408   2.408   2.408   2.408   2.408   2.408   2.408   2.408   2.408   2.408   2.408   2.408
   258.14    2.408   2.408   2.408   2.408   2.408   2.408   2.408   2.408   2.408   2.408   2.408   2.408   2.408   2.408   2.408   2.408   2.408   2.408   2.408   2.408   2.408   2.408   2.408   2.408   2.408   2.408   2.408   2.408   2.408   2.408   2.408   2.408   2.408   2.408   2.408   2.408
   249.57    2.408   2.408   2.408   2.408   2.408   2.408   2.408   2.408   2.408   2.408   2.408   2.408   2.408   2.408   2.408   2.408   2.408   2.408   2.408   2.408   2.408   2.408   2.408   2.408   2.408   2.408   2.408   2.408   2.408   2.408   2.408   2.408   2.408   2.408   2.408   2.408
   241.00    2.408   2.408   2.408   2.408   2.408   2.408   2.408   2.408   2.408   2.408   2.408   2.408   2.408   2.408   2.408   2.408   2.408   2.408   2.408   2.408   2.408   2.408   2.408   2.408   2.408   2.408   2.408   2.408   2.408   2.408   2.408   2.408   2.408   2.408   2.408   2.408
   232.43    2.408   2.408   2.408   2.408   2.408   2.408   2.408   2.408   2.408   2.408   2.408   2.408   2.408   2.408   2.408   2.408   2.408   2.408   2.408   2.408   2.408   2.408   2.408   2.408   2.408   2.408   2.408   2.408   2.408   2.408   2.408   2.408   2.408   2.408   2.408   2.408
   223.86    2.408   2.408   2.408   2.408   2.408   2.408   2.408   2.408   2.408   2.408   2.408   2.408   2.408   2.408   2.408   2.408   2.408   2.408   2.408   2.408   2.408   2.408   2.408   2.408   2.408   2.408   2.408   2.408   2.408   2.408   2.408   2.408   2.408   2.408   2.408   2.408
   215.29    2.408   2.408   2.408   2.408   2.408   2.408   2.408   2.408   2.408   2.408   2.408   2.408   2.408   2.408   2.408   2.408   2.408   2.408   2.408   2.408   2.408   2.408   2.408   2.408   2.408   2.408   2.408   2.408   2.408   2.408   2.408   2.408   2.408   2.408   2.408   2.408
   206.71    2.408   2.408   2.408   2.408   2.408   2.408   2.408   2.408   2.408   2.408   2.408   2.408   2.408   2.408   2.408   2.408   2.408   2.408   2.408   2.408   2.408   2.408   2.408   2.408   2.408   2.408   2.408   2.408   2.408   2.408   2.408   2.408   2.408   2.408   2.408   2.408
   198.14    2.408   2.408   2.408   2.408   2.408   2.408   2.408   2.408   2.408   2.408   2.408   2.408   2.408   2.408   2.408   2.408   2.408   2.408   2.408   2.408   2.408   2.408   2.408   2.408   2.408   2.408   2.408   2.408   2.408   2.408   2.408   2.408   2.408   2.408   2.408   2.408
   189.57    2.408   2.408   2.408   2.408   2.408   2.408   2.408   2.408   2.408   2.408   2.408   2.408   2.408   2.408   2.408   2.408   2.408   2.408   2.408   2.408   2.408   2.408   2.408   2.408   2.408   2.408   2.408   2.408   2.408   2.408   2.408   2.408   2.408   2.408   2.408   2.408
   181.00    2.408   2.408   2.408   2.408   2.408   2.408   2.408   2.408   2.408   2.408   2.408   2.408   2.408   2.408   2.408   2.408   2.408   2.408   2.408   2.408   2.408   2.408   2.408   2.408   2.408   2.408   2.408   2.408   2.408   2.408   2.408   2.408   2.408   2.408   2.408   2.408
   172.43    2.408   2.408   2.408   2.408   2.408   2.408   2.408   2.408   2.408   2.408   2.408   2.408   2.408   2.408   2.408   2.408   2.408   2.408   2.408   2.408   2.408   2.408   2.408   2.408   2.408   2.408   2.408   2.408   2.408   2.408   2.408   2.408   2.408   2.408   2.408   2.408
   163.86    2.408   2.408   2.408   2.408   2.408   2.408   2.408   2.408   2.408   2.408   2.408   2.408   2.408   2.408   2.408   2.408   2.408   2.408   2.408   2.408   2.408   2.408   2.408   2.408   2.408   2.408   2.408   2.408   2.408   2.408   2.408   2.408   2.408   2.408   2.408   2.408
   155.29    2.408   2.408   2.408   2.408   2.408   2.408   2.408   2.408   2.408   2.408   2.408   2.408   2.408   2.408   2.408   2.408   2.408   2.408   2.408   2.408   2.408   2.408   2.408   2.408   2.408   2.408   2.408   2.408   2.408   2.408   2.408   2.408   2.408   2.408   2.408   2.408
   146.71    2.408   2.408   2.408   2.408   2.408   2.408   2.408   2.408   2.408   2.408   2.408   2.408   2.408   2.408   2.408   2.408   2.408   2.408   2.408   2.408   2.408   2.408   2.408   2.408   2.408   2.408   2.408   2.408   2.408   2.408   2.408   2.408   2.408   2.408   2.408   2.408
   138.14    2.408   2.408   2.408   2.408   2.408   2.408   2.408   2.408   2.408   2.408   2.408   2.408   2.408   2.408   2.408   2.408   2.408   2.408   2.408   2.408   2.408   2.408   2.408   2.408   2.408   2.408   2.408   2.408   2.408   2.408   2.408   2.408   2.408   2.408   2.408   2.408
   129.57    2.408   2.408   2.408   2.408   2.408   2.408   2.408   2.408   2.408   2.408   2.408   2.408   2.408   2.408   2.408   2.408   2.408   2.408   2.408   2.408   2.408   2.408   2.408   2.408   2.408   2.408   2.408   2.408   2.408   2.408   2.408   2.408   2.408   2.408   2.408   2.408
   121.00    2.408   2.408   2.408   2.408   2.408   2.408   2.408   2.408   2.408   2.408   2.408   2.408   2.408   2.408   2.408   2.408   2.408   2.408   2.408   2.408   2.408   2.408   2.408   2.408   2.408   2.408   2.408   2.408   2.408   2.408   2.408   2.408   2.408   2.408   2.408   2.408
   112.43    2.408   2.408   2.408   2.408   2.408   2.408   2.408   2.408   2.408   2.408   2.408   2.408   2.408   2.408   2.408   2.408   2.408   2.408   2.408   2.408   2.408   2.408   2.408   2.408   2.408   2.408   2.408   2.408   2.408   2.408   2.408   2.408   2.408   2.408   2.408   2.408
   103.86    2.408   2.408   2.408   2.408   2.408   2.408   2.408   2.408   2.408   2.408   2.408   2.408   2.408   2.408   2.408   2.408   2.408   2.408   2.408   2.408   2.408   2.408   2.408   2.408   2.408   2.408   2.408   2.408   2.408   2.408   2.408   2.408   2.408   2.408   2.408   2.408
    95.29    2.408   2.408   2.408   2.408   2.408   2.408   2.408   2.408   2.408   2.408   2.408   2.408   2.408   2.408   2.408   2.408   2.408   2.408   2.408   2.408   2.408   2.408   2.408   2.408   2.408   2.408   2.408   2.408   2.408   2.408   2.408   2.408   2.408   2.408   2.408   2.408
    86.71    2.408   2.408   2.408   2.408   2.408   2.408   2.408   2.408   2.408   2.408   2.408   2.408   2.408   2.408   2.408   2.408   2.408   2.408   2.408   2.408   2.408   2.408   2.408   2.408   2.408   2.408   2.408   2.408   2.408   2.408   2.408   2.408   2.408   2.408   2.408   2.408
    78.14    2.408   2.408   2.408   2.408   2.408   2.408   2.408   2.408   2.408   2.408   2.408   2.408   2.408   2.408   2.408   2.408   2.408   2.408   2.408   2.408   2.408   2.408   2.408   2.408   2.408   2.408   2.408   2.408   2.408   2.408   2.408   2.408   2.408   2.408   2.408   2.408
    69.57    2.408   2.408   2.408   2.408   2.408   2.408   2.408   2.408   2.408   2.408   2.408   2.408   2.408   2.408   2.408   2.408   2.408   2.408   2.408   2.408   2.408   2.408   2.408   2.408   2.408   2.408   2.408   2.408   2.408   2.408   2.408   2.408   2.408   2.408   2.408   2.408
    61.00    2.408   2.408   2.408   2.408   2.408   2.408   2.408   2.408   2.408   2.408   2.408   2.408   2.408   2.408   2.408   2.408   2.408   2.408   2.408   2.408   2.408   2.408   2.408   2.408   2.408   2.408   2.408   2.408   2.408   2.408   2.408   2.408   2.408   2.408   2.408   2.408
    52.43    2.408   2.408   2.408   2.408   2.408   2.408   2.408   2.408   2.408   2.408   2.408   2.408   2.408   2.408   2.408   2.408   2.408   2.408   2.408   2.408   2.408   2.408   2.408   2.408   2.408   2.408   2.408   2.408   2.408   2.408   2.408   2.408   2.408   2.408   2.408   2.408
    43.86    2.408   2.408   2.408   2.408   2.408   2.408   2.408   2.408   2.408   2.408   2.408   2.408   2.408   2.408   2.408   2.408   2.408   2.408   2.408   2.408   2.408   2.408   2.408   2.408   2.408   2.408   2.408   2.408   2.408   2.408   2.408   2.408   2.408   2.408   2.408   2.408
    35.29    2.408   2.408   2.408   2.408   2.408   2.408   2.408   2.408   2.408   2.408   2.408   2.408   2.408   2.408   2.408   2.408   2.408   2.408   2.408   2.408   2.408   2.408   2.408   2.408   2.408   2.408   2.408   2.408   2.408   2.408   2.408   2.408   2.408   2.408   2.408   2.408
    26.71    2.408   2.408   2.408   2.408   2.408   2.408   2.408   2.408   2.408   2.408   2.408   2.408   2.408   2.408   2.408   2.408   2.408   2.408   2.408   2.408   2.408   2.408   2.408   2.408   2.408   2.408   2.408   2.408   2.408   2.408   2.408   2.408   2.408   2.408   2.408   2.408
    18.14    2.408   2.408   2.408   2.408   2.408   2.408   2.408   2.408   2.408   2.408   2.408   2.408   2.408   2.408   2.408   2.408   2.408   2.408   2.408   2.408   2.408   2.408   2.408   2.408   2.408   2.408   2.408   2.408   2.408   2.408   2.408   2.408   2.408   2.408   2.408   2.408
     9.57    2.408   2.408   2.408   2.408   2.408   2.408   2.408   2.408   2.408   2.408   2.408   2.408   2.408   2.408   2.408   2.408   2.408   2.408   2.408   2.408   2.408   2.408   2.408   2.408   2.408   2.408   2.408   2.408   2.408   2.408   2.408   2.408   2.408   2.408   2.408   2.408
     1.00    2.408   2.408   2.408   2.408   2.408   2.408   2.408   2.408   2.408   2.408   2.408   2.408   2.408   2.408   2.408   2.408   2.408   2.408   2.408   2.408   2.408   2.408   2.408   2.408   2.408   2.408   2.408   2.408   2.408   2.408   2.408   2.408   2.408   2.408   2.408   2.408

   Mean standard deviation across all grid points:
      u component:    2.338 m/s
      v component:    2.408 m/s
      w component:    2.408 m/s


U-component (X) statistics from the interpolated hub point:

   Mean =  12.9650 m/s
   TI   =  15.0024 %


Normalizing Parameters for Binary Data (approximate statistics):

   UBar  =  12.9658 m/s
   TI(u) =  17.4132 %
   TI(v) =  18.5704 %
   TI(w) =  18.5704 %

   Height Offset =   0.0000 m
   Grid Base     =   1.0000 m

Creating a PERIODIC output file.


Processing complete.  114.09 CPU seconds used.
