
This summary file was generated by TurbSim (v2.00.07a-bjj, 14-Jun-2016) on 03-Nov-2023 at 03:24:11.


Runtime Options:

      4601  Random seed #1
    RANLUX  Type of random number generator
         F  Output binary HH turbulence parameters?
         F  Output formatted turbulence parameters?
         F  Output AeroDyn HH files?
         F  Output AeroDyn FF files?
         T  Output BLADED FF files?
         F  Output tower data?
         F  Output formatted FF files?
         F  Output coherent turbulence time step file?
         T  Clockwise rotation when looking downwind?
 0 -  NONE  IEC turbulence models scaled to exact specified standard deviation


Turbine/Model Specifications:

        36  Vertical grid-point matrix dimension
        36  Horizontal grid-point matrix dimension
     0.100  Time step [seconds]
   660.000  Analysis time [seconds]
   660.000  Usable output time [seconds]
   151.000  Hub height [m]
   300.000  Grid height [m]
   300.000  Grid width [m]
     0.000  Vertical flow angle [degrees]
     0.000  Horizontal flow angle [degrees]


Meteorological Boundary Conditions:

    IECVKM  IEC von Karman spectral model
         1  IEC standard: IEC 61400-1 Ed. 3: 2005
         A  IEC turbulence characteristic
       NTM  IEC Normal Turbulence Model
       N/A  IEC Extreme Turbulence Model (ETM) "c" parameter [m/s]
       PL   Wind profile type
   153.000  Reference height [m]
    20.000  Reference wind speed [m/s]
       N/A  Jet height [m]
     0.200  Power law exponent
     0.030  Surface roughness length [m]


Non-IEC Meteorological Boundary Conditions:

       N/A  Site latitude [degrees]
       N/A  Gradient Richardson number
       N/A  Friction or shear velocity [m/s]
       N/A  Mixing layer depth [m]
       N/A  Mean hub u'w' Reynolds stress
       N/A  Mean hub u'v' Reynolds stress
       N/A  Mean hub v'w' Reynolds stress


Spatial Coherence Models:

       IEC  u-component coherence model
      NONE  v-component coherence model
      NONE  w-component coherence model
(   12.000, 0.353E-03)  u-component coherence parameters
                   N/A  v-component coherence parameters
                   N/A  w-component coherence parameters
       N/A  Coherence exponent


You have requested that the following file(s) be generated:

   G:\2023\OpenWECDV1.0.0_x64\BaseLIne\wind\WindL_V_20_seed_4601.wnd (AeroDyn/BLADED full-field wnd file)


Turbulence Simulation Scaling Parameter Summary:

   Turbulence model used                            =  IEC von Karman
   Turbulence characteristic                        =  A
   IEC turbulence type                              =  Normal Turbulence Model
   IEC standard                                     =  IEC 61400-1 Ed. 3: 2005
   Mean wind speed at hub height                    =   19.947 m/s
   Expected value of turbulence intensity at 15 m/s =   16.000%
   Characteristic value of standard deviation       =    3.290 m/s
   Turbulence scale                                 =   42.000 m
   Isotropic integral scale                         =  147.000 m
   Characteristic value of hub turbulence intensity =   16.492%
   Gradient Richardson number                       =    0.000

   Wind profile type                                =  Power law
   Power law exponent                               =    0.200
   Mean shear across rotor disk                     =    0.052 (m/s)/m
   Assumed rotor diameter                           =  300.000 m
   Surface roughness length                         =    0.030 m

   Nyquist frequency of turbulent wind field        =    5.000 Hz

   Number of time steps in the FFT                  =     6600
   Number of time steps output                      =     6600
   Number of points simulated                       =     1297


Mean Flow Angles:

   Vertical   =   0.0 degrees
   Horizontal =   0.0 degrees

Mean Wind Speed Profile:

   Height    Wind Speed   Horizontal Angle  Vertical Angle  U-comp (X)   V-comp (Y)   W-comp (Z)
     (m)        (m/s)         (degrees)       (degrees)       (m/s)        (m/s)        (m/s)   
   ------    ----------   ----------------  --------------  ----------   ----------   ----------
    301.0       22.90            0.00            0.00         22.90         0.00         0.00
    292.4       22.77            0.00            0.00         22.77         0.00         0.00
    283.9       22.63            0.00            0.00         22.63         0.00         0.00
    275.3       22.49            0.00            0.00         22.49         0.00         0.00
    266.7       22.35            0.00            0.00         22.35         0.00         0.00
    258.1       22.21            0.00            0.00         22.21         0.00         0.00
    249.6       22.06            0.00            0.00         22.06         0.00         0.00
    241.0       21.90            0.00            0.00         21.90         0.00         0.00
    232.4       21.74            0.00            0.00         21.74         0.00         0.00
    223.9       21.58            0.00            0.00         21.58         0.00         0.00
    215.3       21.41            0.00            0.00         21.41         0.00         0.00
    206.7       21.24            0.00            0.00         21.24         0.00         0.00
    198.1       21.06            0.00            0.00         21.06         0.00         0.00
    189.6       20.88            0.00            0.00         20.88         0.00         0.00
    181.0       20.68            0.00            0.00         20.68         0.00         0.00
    172.4       20.48            0.00            0.00         20.48         0.00         0.00
    163.9       20.28            0.00            0.00         20.28         0.00         0.00
    155.3       20.06            0.00            0.00         20.06         0.00         0.00
    151.0       19.95            0.00            0.00         19.95         0.00         0.00
    146.7       19.83            0.00            0.00         19.83         0.00         0.00
    138.1       19.60            0.00            0.00         19.60         0.00         0.00
    129.6       19.35            0.00            0.00         19.35         0.00         0.00
    121.0       19.08            0.00            0.00         19.08         0.00         0.00
    112.4       18.80            0.00            0.00         18.80         0.00         0.00
    103.9       18.51            0.00            0.00         18.51         0.00         0.00
     95.3       18.19            0.00            0.00         18.19         0.00         0.00
     86.7       17.85            0.00            0.00         17.85         0.00         0.00
     78.1       17.49            0.00            0.00         17.49         0.00         0.00
     69.6       17.08            0.00            0.00         17.08         0.00         0.00
     61.0       16.64            0.00            0.00         16.64         0.00         0.00
     52.4       16.14            0.00            0.00         16.14         0.00         0.00
     43.9       15.58            0.00            0.00         15.58         0.00         0.00
     35.3       14.91            0.00            0.00         14.91         0.00         0.00
     26.7       14.11            0.00            0.00         14.11         0.00         0.00
     18.1       13.06            0.00            0.00         13.06         0.00         0.00
      9.6       11.49            0.00            0.00         11.49         0.00         0.00
      1.0        7.31            0.00            0.00          7.31         0.00         0.00


Harvested Random Seeds after Generation of the Random Numbers:

    119307688 K 1
            0 K 2


Hub-Height Simulated Turbulence Statistical Summary:

   Type of Wind        Min (m/s)   Mean (m/s)    Max (m/s)  Sigma (m/s)       TI (%)
   ----------------    ---------   ----------    ---------  -----------       ------
   Longitudinal (u)         8.98        19.95        29.37        3.029       15.185
   Lateral (v)             -9.80        -0.00        10.01        3.232       16.202
   Vertical (w)           -10.61        -0.00         9.92        3.232       16.202
   U component              8.98        19.95        29.37        3.029       15.185
   V component             -9.80        -0.00        10.01        3.232       16.202
   W component            -10.61        -0.00         9.92        3.232       16.202
   Horizontal (U&V)         9.04        20.21        29.68        3.014       14.914
   Total                    9.30        20.47        29.80        3.011       14.711

                       Min Reynolds     Mean Reynolds    Max Reynolds    Correlation
   Product             Stress (m/s)^2   Stress (m/s)^2   Stress (m/s)^2  Coefficient
   ----------------    --------------   --------------   --------------  -----------
   u'w'                    -54.089             0.088            46.800         0.009
   u'v'                    -39.069             1.891            59.910         0.193
   v'w'                    -59.918             0.694            75.141         0.066


   Friction Velocity (Ustar)  =      0.296 m/s
   Maximum Instantaneous TKE  =     78.159 (m/s)^2
   Maximum Instantaneous CTKE =     39.331 (m/s)^2


Grid Point Variance Summary:

   Y-coord -150.00 -141.43 -132.86 -124.29 -115.71 -107.14  -98.57  -90.00  -81.43  -72.86  -64.29  -55.71  -47.14  -38.57  -30.00  -21.43  -12.86   -4.29    4.29   12.86   21.43   30.00   38.57   47.14   55.71   64.29   72.86   81.43   90.00   98.57  107.14  115.71  124.29  132.86  141.43  150.00

   Height   Standard deviation at grid points for the u component:
   301.00    3.245   3.370   3.360   3.407   3.252   3.402   3.575   3.514   3.390   3.329   3.330   3.198   3.339   3.171   3.090   3.069   3.170   3.171   3.331   3.375   3.408   3.431   3.282   3.325   3.238   3.560   3.547   3.503   3.413   3.499   3.420   3.462   3.589   3.559   3.423   3.304
   292.43    3.511   3.438   3.335   3.468   3.479   3.407   3.550   3.705   3.305   3.282   3.277   3.379   3.288   3.447   2.984   3.229   3.209   3.170   3.203   3.235   3.303   3.296   3.466   3.414   3.310   3.388   3.417   3.513   3.488   3.303   3.561   3.545   3.481   3.586   3.369   3.401
   283.86    3.318   3.330   3.321   3.349   3.388   3.572   3.515   3.499   3.321   3.254   3.312   3.337   3.301   3.217   2.986   2.964   3.128   3.251   3.394   3.300   3.123   3.367   3.417   3.372   3.310   3.316   3.278   3.349   3.367   3.449   3.487   3.485   3.465   3.338   3.246   3.329
   275.29    3.470   3.417   3.350   3.650   3.528   3.476   3.430   3.435   3.453   3.403   3.439   3.419   3.406   3.195   3.094   3.121   3.178   3.304   3.377   3.301   3.262   3.236   3.390   3.543   3.308   3.153   3.189   3.345   3.339   3.279   3.469   3.502   3.358   3.240   3.221   3.186
   266.71    3.540   3.411   3.413   3.457   3.542   3.453   3.487   3.355   3.530   3.444   3.423   3.270   3.184   3.091   3.078   3.175   3.238   3.234   3.191   3.151   3.319   3.265   3.382   3.464   3.294   3.214   3.178   3.383   3.300   3.413   3.487   3.350   3.322   3.211   3.415   3.296
   258.14    3.506   3.551   3.557   3.585   3.427   3.329   3.508   3.418   3.542   3.390   3.436   3.252   3.309   3.211   3.257   3.208   3.251   3.280   3.273   3.220   3.276   3.258   3.298   3.215   3.235   3.181   3.071   3.236   3.243   3.391   3.420   3.485   3.666   3.377   3.239   3.220
   249.57    3.596   3.532   3.537   3.441   3.576   3.416   3.417   3.500   3.535   3.512   3.420   3.333   3.107   3.340   3.288   3.224   3.331   3.452   3.249   3.285   3.277   3.348   3.245   3.206   3.140   3.083   3.018   3.174   3.146   3.175   3.350   3.384   3.437   3.276   3.437   3.142
   241.00    3.679   3.587   3.498   3.532   3.660   3.501   3.396   3.559   3.407   3.443   3.434   3.407   3.328   3.196   3.199   3.292   3.275   3.271   3.434   3.376   3.265   3.212   3.046   3.020   3.092   3.034   3.013   2.953   3.137   3.151   3.294   3.577   3.465   3.385   3.317   3.332
   232.43    3.735   3.794   3.471   3.566   3.570   3.565   3.558   3.633   3.562   3.452   3.266   3.190   3.226   3.201   3.193   3.357   3.228   3.316   3.325   3.201   3.219   3.257   3.018   3.062   2.921   2.889   3.013   3.031   3.057   3.214   3.385   3.608   3.366   3.132   3.195   3.217
   223.86    3.854   3.947   3.678   3.643   3.667   3.758   3.812   3.586   3.332   3.392   3.255   3.337   3.347   3.214   3.166   3.256   3.376   3.354   3.314   3.239   3.032   2.946   2.910   3.034   2.890   2.908   2.884   3.112   3.113   3.214   3.208   3.496   3.267   3.021   3.093   3.175
   215.29    3.891   4.080   3.749   3.753   3.677   3.853   3.676   3.518   3.431   3.454   3.360   3.243   3.266   3.204   3.251   3.242   3.417   3.374   3.240   3.067   3.127   2.863   3.067   2.965   2.782   2.905   2.885   3.079   3.098   3.221   3.238   3.362   3.269   3.049   3.065   3.205
   206.71    3.992   3.998   3.735   3.542   3.696   3.702   3.513   3.662   3.553   3.612   3.624   3.346   3.209   3.207   3.103   3.421   3.514   3.284   3.230   3.047   3.191   2.974   3.242   3.235   3.062   2.856   2.873   3.092   3.107   3.124   3.075   3.206   3.167   2.901   3.137   3.146
   198.14    4.055   4.053   3.721   3.574   3.692   3.732   3.512   3.619   3.727   3.601   3.467   3.342   3.115   3.041   3.000   3.313   3.373   3.224   3.163   3.045   3.068   3.214   3.321   3.193   3.042   3.015   2.863   2.995   3.066   3.103   3.213   3.269   3.251   3.286   3.234   3.186
   189.57    4.058   3.892   3.846   3.682   3.634   3.556   3.577   3.474   3.428   3.385   3.277   3.177   3.121   2.951   3.068   3.077   3.129   3.220   3.174   2.994   3.189   3.097   3.323   3.163   3.048   3.187   3.099   3.101   3.062   3.080   3.118   3.168   3.271   3.396   3.347   3.321
   181.00    3.813   3.706   3.683   3.710   3.480   3.409   3.379   3.278   3.333   3.235   3.235   3.094   2.911   3.005   2.994   2.925   3.154   3.150   3.119   3.173   3.149   3.219   3.253   3.105   3.049   3.098   3.102   3.216   3.017   3.185   3.198   3.070   3.257   3.381   3.248   3.383
   172.43    3.497   3.431   3.575   3.381   3.332   3.281   3.323   3.267   3.282   3.360   3.418   3.268   3.022   2.887   2.971   2.979   3.015   3.097   3.092   3.107   3.084   3.253   3.252   3.040   3.079   2.992   3.025   3.197   3.179   3.146   3.167   3.106   3.138   3.335   3.235   3.437
   163.86    3.432   3.340   3.458   3.457   3.309   3.348   3.424   3.218   3.299   3.336   3.328   3.289   3.160   2.951   2.912   2.854   3.066   3.041   3.007   3.004   3.224   3.188   3.373   3.023   3.175   3.083   3.129   3.081   3.258   3.278   3.264   3.276   3.378   3.393   3.326   3.337
   155.29    3.385   3.454   3.526   3.412   3.598   3.566   3.474   3.296   3.343   3.419   3.337   3.326   3.092   3.159   3.123   2.960   2.848   2.934   2.969   3.134   3.151   3.225   3.175   3.164   3.134   3.250   3.345   3.269   3.291   3.303   3.336   3.381   3.368   3.467   3.460   3.470
   146.71    3.286   3.352   3.409   3.467   3.477   3.522   3.498   3.570   3.429   3.531   3.534   3.561   3.363   3.333   3.044   2.940   2.882   3.008   2.966   3.283   3.153   3.102   3.242   3.203   3.050   3.158   3.349   3.211   3.247   3.245   3.289   3.415   3.433   3.522   3.500   3.562
   138.14    3.481   3.515   3.574   3.536   3.587   3.570   3.546   3.459   3.328   3.316   3.560   3.407   3.431   3.289   2.945   2.992   3.046   3.153   3.435   3.336   3.275   3.048   3.164   3.171   3.195   3.161   3.269   3.342   3.353   3.244   3.250   3.329   3.438   3.539   3.465   3.483
   129.57    3.617   3.694   3.529   3.618   3.492   3.356   3.410   3.455   3.267   3.301   3.338   3.340   3.352   3.358   3.199   3.223   3.105   3.335   3.491   3.418   3.379   3.157   3.185   3.327   3.260   3.326   3.149   3.262   3.263   3.437   3.367   3.263   3.362   3.577   3.530   3.648
   121.00    3.716   3.682   3.718   3.524   3.376   3.273   3.227   3.357   3.264   3.224   3.196   3.374   3.272   3.380   3.189   3.235   3.246   3.476   3.504   3.396   3.494   3.342   3.167   2.944   3.013   3.094   3.142   3.235   3.206   3.335   3.381   3.225   3.302   3.452   3.555   3.785
   112.43    3.757   3.703   3.747   3.602   3.427   3.167   3.362   3.334   3.293   3.300   3.321   3.436   3.367   3.224   3.224   3.248   3.358   3.299   3.345   3.364   3.336   3.391   3.218   3.076   3.047   3.059   3.188   3.203   3.352   3.244   3.125   3.198   3.249   3.309   3.429   3.548
   103.86    3.613   3.708   3.667   3.520   3.334   3.437   3.334   3.325   3.394   3.332   3.437   3.443   3.380   3.290   3.232   3.375   3.414   3.258   3.126   3.290   3.261   3.262   3.331   3.102   3.222   3.129   3.131   3.193   3.289   3.184   3.316   3.285   3.260   3.231   3.357   3.489
    95.29    3.607   3.651   3.672   3.653   3.551   3.485   3.429   3.294   3.300   3.378   3.466   3.557   3.579   3.466   3.241   3.348   3.357   3.291   3.236   3.335   3.084   3.096   3.190   3.161   3.130   3.245   3.096   3.242   3.258   3.236   3.184   3.128   3.120   3.300   3.331   3.503
    86.71    3.365   3.529   3.596   3.474   3.546   3.566   3.510   3.288   3.157   3.429   3.472   3.650   3.554   3.371   3.334   3.331   3.244   3.239   3.213   3.192   3.084   3.101   3.112   3.341   3.264   3.154   3.245   3.356   3.233   3.162   3.150   3.042   3.129   3.290   3.375   3.255
    78.14    3.344   3.516   3.608   3.509   3.364   3.527   3.469   3.450   3.304   3.291   3.455   3.628   3.673   3.496   3.319   3.358   3.291   3.152   3.313   3.094   2.965   3.076   3.077   3.161   3.189   3.049   3.181   3.225   3.297   3.246   3.325   3.196   3.064   3.190   3.321   3.326
    69.57    3.412   3.613   3.719   3.537   3.485   3.476   3.558   3.427   3.425   3.420   3.581   3.626   3.482   3.537   3.476   3.469   3.502   3.450   3.389   3.136   3.083   3.027   3.096   2.986   3.070   2.953   2.876   3.082   3.194   3.320   3.327   3.242   3.155   3.115   3.250   3.315
    61.00    3.328   3.588   3.678   3.566   3.561   3.519   3.442   3.432   3.371   3.448   3.471   3.191   3.400   3.646   3.488   3.397   3.420   3.449   3.505   3.299   3.166   2.976   2.973   2.978   3.113   3.045   3.025   3.090   3.204   3.361   3.343   3.348   3.256   3.221   3.504   3.426
    52.43    3.387   3.589   3.509   3.364   3.409   3.373   3.405   3.436   3.246   3.414   3.334   3.210   3.324   3.297   3.392   3.316   3.294   3.522   3.387   3.299   3.068   3.030   3.074   3.154   3.130   3.130   3.229   3.058   3.210   3.317   3.314   3.215   3.240   3.329   3.441   3.446
    43.86    3.189   3.412   3.558   3.306   3.345   3.171   3.406   3.479   3.432   3.442   3.409   3.343   3.186   3.116   3.182   3.261   3.426   3.408   3.298   3.300   3.213   2.968   3.057   3.097   2.806   2.969   2.983   3.187   3.421   3.334   3.309   3.299   3.147   3.302   3.366   3.436
    35.29    3.162   3.395   3.392   3.348   3.350   3.339   3.286   3.524   3.402   3.530   3.547   3.492   3.291   3.086   3.144   3.149   3.487   3.316   3.267   3.147   3.260   3.306   3.332   3.089   3.089   3.103   3.136   3.193   3.275   3.365   3.357   3.206   3.288   3.243   3.471   3.482
    26.71    3.218   3.195   3.220   3.349   3.400   3.372   3.338   3.518   3.513   3.547   3.422   3.300   3.330   3.307   3.363   3.256   3.332   3.357   3.264   3.332   3.372   3.130   3.192   3.013   3.014   3.098   3.049   3.186   3.171   3.084   3.219   3.310   3.267   3.228   3.328   3.325
    18.14    3.241   3.145   3.145   3.164   3.214   3.312   3.401   3.438   3.418   3.297   3.305   3.284   3.325   3.405   3.510   3.409   3.509   3.374   3.329   3.239   3.205   3.206   2.919   2.880   2.920   3.011   3.106   3.124   3.023   3.000   3.066   3.221   3.281   3.183   3.329   3.191
     9.57    3.160   3.257   3.195   3.350   3.345   3.243   3.278   3.142   3.128   2.993   3.283   3.256   3.329   3.454   3.363   3.348   3.458   3.371   3.355   3.154   3.085   3.241   3.037   2.936   2.828   2.916   2.897   2.907   2.926   3.097   3.108   3.191   3.166   3.232   3.272   3.064
     1.00    3.224   3.325   3.264   3.291   3.231   3.313   3.170   3.234   3.135   3.124   3.039   3.152   3.320   3.354   3.218   3.229   3.129   3.305   3.191   3.160   3.051   3.146   3.084   3.045   3.038   2.958   3.109   3.012   2.963   3.160   3.123   3.154   3.207   3.320   3.128   3.245

   Height   Standard deviation at grid points for the v component:
   301.00    3.232   3.232   3.232   3.232   3.232   3.232   3.232   3.232   3.232   3.232   3.232   3.232   3.232   3.232   3.232   3.232   3.232   3.232   3.232   3.232   3.232   3.232   3.232   3.232   3.232   3.232   3.232   3.232   3.232   3.232   3.232   3.232   3.232   3.232   3.232   3.232
   292.43    3.232   3.232   3.232   3.232   3.232   3.232   3.232   3.232   3.232   3.232   3.232   3.232   3.232   3.232   3.232   3.232   3.232   3.232   3.232   3.232   3.232   3.232   3.232   3.232   3.232   3.232   3.232   3.232   3.232   3.232   3.232   3.232   3.232   3.232   3.232   3.232
   283.86    3.232   3.232   3.232   3.232   3.232   3.232   3.232   3.232   3.232   3.232   3.232   3.232   3.232   3.232   3.232   3.232   3.232   3.232   3.232   3.232   3.232   3.232   3.232   3.232   3.232   3.232   3.232   3.232   3.232   3.232   3.232   3.232   3.232   3.232   3.232   3.232
   275.29    3.232   3.232   3.232   3.232   3.232   3.232   3.232   3.232   3.232   3.232   3.232   3.232   3.232   3.232   3.232   3.232   3.232   3.232   3.232   3.232   3.232   3.232   3.232   3.232   3.232   3.232   3.232   3.232   3.232   3.232   3.232   3.232   3.232   3.232   3.232   3.232
   266.71    3.232   3.232   3.232   3.232   3.232   3.232   3.232   3.232   3.232   3.232   3.232   3.232   3.232   3.232   3.232   3.232   3.232   3.232   3.232   3.232   3.232   3.232   3.232   3.232   3.232   3.232   3.232   3.232   3.232   3.232   3.232   3.232   3.232   3.232   3.232   3.232
   258.14    3.232   3.232   3.232   3.232   3.232   3.232   3.232   3.232   3.232   3.232   3.232   3.232   3.232   3.232   3.232   3.232   3.232   3.232   3.232   3.232   3.232   3.232   3.232   3.232   3.232   3.232   3.232   3.232   3.232   3.232   3.232   3.232   3.232   3.232   3.232   3.232
   249.57    3.232   3.232   3.232   3.232   3.232   3.232   3.232   3.232   3.232   3.232   3.232   3.232   3.232   3.232   3.232   3.232   3.232   3.232   3.232   3.232   3.232   3.232   3.232   3.232   3.232   3.232   3.232   3.232   3.232   3.232   3.232   3.232   3.232   3.232   3.232   3.232
   241.00    3.232   3.232   3.232   3.232   3.232   3.232   3.232   3.232   3.232   3.232   3.232   3.232   3.232   3.232   3.232   3.232   3.232   3.232   3.232   3.232   3.232   3.232   3.232   3.232   3.232   3.232   3.232   3.232   3.232   3.232   3.232   3.232   3.232   3.232   3.232   3.232
   232.43    3.232   3.232   3.232   3.232   3.232   3.232   3.232   3.232   3.232   3.232   3.232   3.232   3.232   3.232   3.232   3.232   3.232   3.232   3.232   3.232   3.232   3.232   3.232   3.232   3.232   3.232   3.232   3.232   3.232   3.232   3.232   3.232   3.232   3.232   3.232   3.232
   223.86    3.232   3.232   3.232   3.232   3.232   3.232   3.232   3.232   3.232   3.232   3.232   3.232   3.232   3.232   3.232   3.232   3.232   3.232   3.232   3.232   3.232   3.232   3.232   3.232   3.232   3.232   3.232   3.232   3.232   3.232   3.232   3.232   3.232   3.232   3.232   3.232
   215.29    3.232   3.232   3.232   3.232   3.232   3.232   3.232   3.232   3.232   3.232   3.232   3.232   3.232   3.232   3.232   3.232   3.232   3.232   3.232   3.232   3.232   3.232   3.232   3.232   3.232   3.232   3.232   3.232   3.232   3.232   3.232   3.232   3.232   3.232   3.232   3.232
   206.71    3.232   3.232   3.232   3.232   3.232   3.232   3.232   3.232   3.232   3.232   3.232   3.232   3.232   3.232   3.232   3.232   3.232   3.232   3.232   3.232   3.232   3.232   3.232   3.232   3.232   3.232   3.232   3.232   3.232   3.232   3.232   3.232   3.232   3.232   3.232   3.232
   198.14    3.232   3.232   3.232   3.232   3.232   3.232   3.232   3.232   3.232   3.232   3.232   3.232   3.232   3.232   3.232   3.232   3.232   3.232   3.232   3.232   3.232   3.232   3.232   3.232   3.232   3.232   3.232   3.232   3.232   3.232   3.232   3.232   3.232   3.232   3.232   3.232
   189.57    3.232   3.232   3.232   3.232   3.232   3.232   3.232   3.232   3.232   3.232   3.232   3.232   3.232   3.232   3.232   3.232   3.232   3.232   3.232   3.232   3.232   3.232   3.232   3.232   3.232   3.232   3.232   3.232   3.232   3.232   3.232   3.232   3.232   3.232   3.232   3.232
   181.00    3.232   3.232   3.232   3.232   3.232   3.232   3.232   3.232   3.232   3.232   3.232   3.232   3.232   3.232   3.232   3.232   3.232   3.232   3.232   3.232   3.232   3.232   3.232   3.232   3.232   3.232   3.232   3.232   3.232   3.232   3.232   3.232   3.232   3.232   3.232   3.232
   172.43    3.232   3.232   3.232   3.232   3.232   3.232   3.232   3.232   3.232   3.232   3.232   3.232   3.232   3.232   3.232   3.232   3.232   3.232   3.232   3.232   3.232   3.232   3.232   3.232   3.232   3.232   3.232   3.232   3.232   3.232   3.232   3.232   3.232   3.232   3.232   3.232
   163.86    3.232   3.232   3.232   3.232   3.232   3.232   3.232   3.232   3.232   3.232   3.232   3.232   3.232   3.232   3.232   3.232   3.232   3.232   3.232   3.232   3.232   3.232   3.232   3.232   3.232   3.232   3.232   3.232   3.232   3.232   3.232   3.232   3.232   3.232   3.232   3.232
   155.29    3.232   3.232   3.232   3.232   3.232   3.232   3.232   3.232   3.232   3.232   3.232   3.232   3.232   3.232   3.232   3.232   3.232   3.232   3.232   3.232   3.232   3.232   3.232   3.232   3.232   3.232   3.232   3.232   3.232   3.232   3.232   3.232   3.232   3.232   3.232   3.232
   146.71    3.232   3.232   3.232   3.232   3.232   3.232   3.232   3.232   3.232   3.232   3.232   3.232   3.232   3.232   3.232   3.232   3.232   3.232   3.232   3.232   3.232   3.232   3.232   3.232   3.232   3.232   3.232   3.232   3.232   3.232   3.232   3.232   3.232   3.232   3.232   3.232
   138.14    3.232   3.232   3.232   3.232   3.232   3.232   3.232   3.232   3.232   3.232   3.232   3.232   3.232   3.232   3.232   3.232   3.232   3.232   3.232   3.232   3.232   3.232   3.232   3.232   3.232   3.232   3.232   3.232   3.232   3.232   3.232   3.232   3.232   3.232   3.232   3.232
   129.57    3.232   3.232   3.232   3.232   3.232   3.232   3.232   3.232   3.232   3.232   3.232   3.232   3.232   3.232   3.232   3.232   3.232   3.232   3.232   3.232   3.232   3.232   3.232   3.232   3.232   3.232   3.232   3.232   3.232   3.232   3.232   3.232   3.232   3.232   3.232   3.232
   121.00    3.232   3.232   3.232   3.232   3.232   3.232   3.232   3.232   3.232   3.232   3.232   3.232   3.232   3.232   3.232   3.232   3.232   3.232   3.232   3.232   3.232   3.232   3.232   3.232   3.232   3.232   3.232   3.232   3.232   3.232   3.232   3.232   3.232   3.232   3.232   3.232
   112.43    3.232   3.232   3.232   3.232   3.232   3.232   3.232   3.232   3.232   3.232   3.232   3.232   3.232   3.232   3.232   3.232   3.232   3.232   3.232   3.232   3.232   3.232   3.232   3.232   3.232   3.232   3.232   3.232   3.232   3.232   3.232   3.232   3.232   3.232   3.232   3.232
   103.86    3.232   3.232   3.232   3.232   3.232   3.232   3.232   3.232   3.232   3.232   3.232   3.232   3.232   3.232   3.232   3.232   3.232   3.232   3.232   3.232   3.232   3.232   3.232   3.232   3.232   3.232   3.232   3.232   3.232   3.232   3.232   3.232   3.232   3.232   3.232   3.232
    95.29    3.232   3.232   3.232   3.232   3.232   3.232   3.232   3.232   3.232   3.232   3.232   3.232   3.232   3.232   3.232   3.232   3.232   3.232   3.232   3.232   3.232   3.232   3.232   3.232   3.232   3.232   3.232   3.232   3.232   3.232   3.232   3.232   3.232   3.232   3.232   3.232
    86.71    3.232   3.232   3.232   3.232   3.232   3.232   3.232   3.232   3.232   3.232   3.232   3.232   3.232   3.232   3.232   3.232   3.232   3.232   3.232   3.232   3.232   3.232   3.232   3.232   3.232   3.232   3.232   3.232   3.232   3.232   3.232   3.232   3.232   3.232   3.232   3.232
    78.14    3.232   3.232   3.232   3.232   3.232   3.232   3.232   3.232   3.232   3.232   3.232   3.232   3.232   3.232   3.232   3.232   3.232   3.232   3.232   3.232   3.232   3.232   3.232   3.232   3.232   3.232   3.232   3.232   3.232   3.232   3.232   3.232   3.232   3.232   3.232   3.232
    69.57    3.232   3.232   3.232   3.232   3.232   3.232   3.232   3.232   3.232   3.232   3.232   3.232   3.232   3.232   3.232   3.232   3.232   3.232   3.232   3.232   3.232   3.232   3.232   3.232   3.232   3.232   3.232   3.232   3.232   3.232   3.232   3.232   3.232   3.232   3.232   3.232
    61.00    3.232   3.232   3.232   3.232   3.232   3.232   3.232   3.232   3.232   3.232   3.232   3.232   3.232   3.232   3.232   3.232   3.232   3.232   3.232   3.232   3.232   3.232   3.232   3.232   3.232   3.232   3.232   3.232   3.232   3.232   3.232   3.232   3.232   3.232   3.232   3.232
    52.43    3.232   3.232   3.232   3.232   3.232   3.232   3.232   3.232   3.232   3.232   3.232   3.232   3.232   3.232   3.232   3.232   3.232   3.232   3.232   3.232   3.232   3.232   3.232   3.232   3.232   3.232   3.232   3.232   3.232   3.232   3.232   3.232   3.232   3.232   3.232   3.232
    43.86    3.232   3.232   3.232   3.232   3.232   3.232   3.232   3.232   3.232   3.232   3.232   3.232   3.232   3.232   3.232   3.232   3.232   3.232   3.232   3.232   3.232   3.232   3.232   3.232   3.232   3.232   3.232   3.232   3.232   3.232   3.232   3.232   3.232   3.232   3.232   3.232
    35.29    3.232   3.232   3.232   3.232   3.232   3.232   3.232   3.232   3.232   3.232   3.232   3.232   3.232   3.232   3.232   3.232   3.232   3.232   3.232   3.232   3.232   3.232   3.232   3.232   3.232   3.232   3.232   3.232   3.232   3.232   3.232   3.232   3.232   3.232   3.232   3.232
    26.71    3.232   3.232   3.232   3.232   3.232   3.232   3.232   3.232   3.232   3.232   3.232   3.232   3.232   3.232   3.232   3.232   3.232   3.232   3.232   3.232   3.232   3.232   3.232   3.232   3.232   3.232   3.232   3.232   3.232   3.232   3.232   3.232   3.232   3.232   3.232   3.232
    18.14    3.232   3.232   3.232   3.232   3.232   3.232   3.232   3.232   3.232   3.232   3.232   3.232   3.232   3.232   3.232   3.232   3.232   3.232   3.232   3.232   3.232   3.232   3.232   3.232   3.232   3.232   3.232   3.232   3.232   3.232   3.232   3.232   3.232   3.232   3.232   3.232
     9.57    3.232   3.232   3.232   3.232   3.232   3.232   3.232   3.232   3.232   3.232   3.232   3.232   3.232   3.232   3.232   3.232   3.232   3.232   3.232   3.232   3.232   3.232   3.232   3.232   3.232   3.232   3.232   3.232   3.232   3.232   3.232   3.232   3.232   3.232   3.232   3.232
     1.00    3.232   3.232   3.232   3.232   3.232   3.232   3.232   3.232   3.232   3.232   3.232   3.232   3.232   3.232   3.232   3.232   3.232   3.232   3.232   3.232   3.232   3.232   3.232   3.232   3.232   3.232   3.232   3.232   3.232   3.232   3.232   3.232   3.232   3.232   3.232   3.232

   Height   Standard deviation at grid points for the w component:
   301.00    3.232   3.232   3.232   3.232   3.232   3.232   3.232   3.232   3.232   3.232   3.232   3.232   3.232   3.232   3.232   3.232   3.232   3.232   3.232   3.232   3.232   3.232   3.232   3.232   3.232   3.232   3.232   3.232   3.232   3.232   3.232   3.232   3.232   3.232   3.232   3.232
   292.43    3.232   3.232   3.232   3.232   3.232   3.232   3.232   3.232   3.232   3.232   3.232   3.232   3.232   3.232   3.232   3.232   3.232   3.232   3.232   3.232   3.232   3.232   3.232   3.232   3.232   3.232   3.232   3.232   3.232   3.232   3.232   3.232   3.232   3.232   3.232   3.232
   283.86    3.232   3.232   3.232   3.232   3.232   3.232   3.232   3.232   3.232   3.232   3.232   3.232   3.232   3.232   3.232   3.232   3.232   3.232   3.232   3.232   3.232   3.232   3.232   3.232   3.232   3.232   3.232   3.232   3.232   3.232   3.232   3.232   3.232   3.232   3.232   3.232
   275.29    3.232   3.232   3.232   3.232   3.232   3.232   3.232   3.232   3.232   3.232   3.232   3.232   3.232   3.232   3.232   3.232   3.232   3.232   3.232   3.232   3.232   3.232   3.232   3.232   3.232   3.232   3.232   3.232   3.232   3.232   3.232   3.232   3.232   3.232   3.232   3.232
   266.71    3.232   3.232   3.232   3.232   3.232   3.232   3.232   3.232   3.232   3.232   3.232   3.232   3.232   3.232   3.232   3.232   3.232   3.232   3.232   3.232   3.232   3.232   3.232   3.232   3.232   3.232   3.232   3.232   3.232   3.232   3.232   3.232   3.232   3.232   3.232   3.232
   258.14    3.232   3.232   3.232   3.232   3.232   3.232   3.232   3.232   3.232   3.232   3.232   3.232   3.232   3.232   3.232   3.232   3.232   3.232   3.232   3.232   3.232   3.232   3.232   3.232   3.232   3.232   3.232   3.232   3.232   3.232   3.232   3.232   3.232   3.232   3.232   3.232
   249.57    3.232   3.232   3.232   3.232   3.232   3.232   3.232   3.232   3.232   3.232   3.232   3.232   3.232   3.232   3.232   3.232   3.232   3.232   3.232   3.232   3.232   3.232   3.232   3.232   3.232   3.232   3.232   3.232   3.232   3.232   3.232   3.232   3.232   3.232   3.232   3.232
   241.00    3.232   3.232   3.232   3.232   3.232   3.232   3.232   3.232   3.232   3.232   3.232   3.232   3.232   3.232   3.232   3.232   3.232   3.232   3.232   3.232   3.232   3.232   3.232   3.232   3.232   3.232   3.232   3.232   3.232   3.232   3.232   3.232   3.232   3.232   3.232   3.232
   232.43    3.232   3.232   3.232   3.232   3.232   3.232   3.232   3.232   3.232   3.232   3.232   3.232   3.232   3.232   3.232   3.232   3.232   3.232   3.232   3.232   3.232   3.232   3.232   3.232   3.232   3.232   3.232   3.232   3.232   3.232   3.232   3.232   3.232   3.232   3.232   3.232
   223.86    3.232   3.232   3.232   3.232   3.232   3.232   3.232   3.232   3.232   3.232   3.232   3.232   3.232   3.232   3.232   3.232   3.232   3.232   3.232   3.232   3.232   3.232   3.232   3.232   3.232   3.232   3.232   3.232   3.232   3.232   3.232   3.232   3.232   3.232   3.232   3.232
   215.29    3.232   3.232   3.232   3.232   3.232   3.232   3.232   3.232   3.232   3.232   3.232   3.232   3.232   3.232   3.232   3.232   3.232   3.232   3.232   3.232   3.232   3.232   3.232   3.232   3.232   3.232   3.232   3.232   3.232   3.232   3.232   3.232   3.232   3.232   3.232   3.232
   206.71    3.232   3.232   3.232   3.232   3.232   3.232   3.232   3.232   3.232   3.232   3.232   3.232   3.232   3.232   3.232   3.232   3.232   3.232   3.232   3.232   3.232   3.232   3.232   3.232   3.232   3.232   3.232   3.232   3.232   3.232   3.232   3.232   3.232   3.232   3.232   3.232
   198.14    3.232   3.232   3.232   3.232   3.232   3.232   3.232   3.232   3.232   3.232   3.232   3.232   3.232   3.232   3.232   3.232   3.232   3.232   3.232   3.232   3.232   3.232   3.232   3.232   3.232   3.232   3.232   3.232   3.232   3.232   3.232   3.232   3.232   3.232   3.232   3.232
   189.57    3.232   3.232   3.232   3.232   3.232   3.232   3.232   3.232   3.232   3.232   3.232   3.232   3.232   3.232   3.232   3.232   3.232   3.232   3.232   3.232   3.232   3.232   3.232   3.232   3.232   3.232   3.232   3.232   3.232   3.232   3.232   3.232   3.232   3.232   3.232   3.232
   181.00    3.232   3.232   3.232   3.232   3.232   3.232   3.232   3.232   3.232   3.232   3.232   3.232   3.232   3.232   3.232   3.232   3.232   3.232   3.232   3.232   3.232   3.232   3.232   3.232   3.232   3.232   3.232   3.232   3.232   3.232   3.232   3.232   3.232   3.232   3.232   3.232
   172.43    3.232   3.232   3.232   3.232   3.232   3.232   3.232   3.232   3.232   3.232   3.232   3.232   3.232   3.232   3.232   3.232   3.232   3.232   3.232   3.232   3.232   3.232   3.232   3.232   3.232   3.232   3.232   3.232   3.232   3.232   3.232   3.232   3.232   3.232   3.232   3.232
   163.86    3.232   3.232   3.232   3.232   3.232   3.232   3.232   3.232   3.232   3.232   3.232   3.232   3.232   3.232   3.232   3.232   3.232   3.232   3.232   3.232   3.232   3.232   3.232   3.232   3.232   3.232   3.232   3.232   3.232   3.232   3.232   3.232   3.232   3.232   3.232   3.232
   155.29    3.232   3.232   3.232   3.232   3.232   3.232   3.232   3.232   3.232   3.232   3.232   3.232   3.232   3.232   3.232   3.232   3.232   3.232   3.232   3.232   3.232   3.232   3.232   3.232   3.232   3.232   3.232   3.232   3.232   3.232   3.232   3.232   3.232   3.232   3.232   3.232
   146.71    3.232   3.232   3.232   3.232   3.232   3.232   3.232   3.232   3.232   3.232   3.232   3.232   3.232   3.232   3.232   3.232   3.232   3.232   3.232   3.232   3.232   3.232   3.232   3.232   3.232   3.232   3.232   3.232   3.232   3.232   3.232   3.232   3.232   3.232   3.232   3.232
   138.14    3.232   3.232   3.232   3.232   3.232   3.232   3.232   3.232   3.232   3.232   3.232   3.232   3.232   3.232   3.232   3.232   3.232   3.232   3.232   3.232   3.232   3.232   3.232   3.232   3.232   3.232   3.232   3.232   3.232   3.232   3.232   3.232   3.232   3.232   3.232   3.232
   129.57    3.232   3.232   3.232   3.232   3.232   3.232   3.232   3.232   3.232   3.232   3.232   3.232   3.232   3.232   3.232   3.232   3.232   3.232   3.232   3.232   3.232   3.232   3.232   3.232   3.232   3.232   3.232   3.232   3.232   3.232   3.232   3.232   3.232   3.232   3.232   3.232
   121.00    3.232   3.232   3.232   3.232   3.232   3.232   3.232   3.232   3.232   3.232   3.232   3.232   3.232   3.232   3.232   3.232   3.232   3.232   3.232   3.232   3.232   3.232   3.232   3.232   3.232   3.232   3.232   3.232   3.232   3.232   3.232   3.232   3.232   3.232   3.232   3.232
   112.43    3.232   3.232   3.232   3.232   3.232   3.232   3.232   3.232   3.232   3.232   3.232   3.232   3.232   3.232   3.232   3.232   3.232   3.232   3.232   3.232   3.232   3.232   3.232   3.232   3.232   3.232   3.232   3.232   3.232   3.232   3.232   3.232   3.232   3.232   3.232   3.232
   103.86    3.232   3.232   3.232   3.232   3.232   3.232   3.232   3.232   3.232   3.232   3.232   3.232   3.232   3.232   3.232   3.232   3.232   3.232   3.232   3.232   3.232   3.232   3.232   3.232   3.232   3.232   3.232   3.232   3.232   3.232   3.232   3.232   3.232   3.232   3.232   3.232
    95.29    3.232   3.232   3.232   3.232   3.232   3.232   3.232   3.232   3.232   3.232   3.232   3.232   3.232   3.232   3.232   3.232   3.232   3.232   3.232   3.232   3.232   3.232   3.232   3.232   3.232   3.232   3.232   3.232   3.232   3.232   3.232   3.232   3.232   3.232   3.232   3.232
    86.71    3.232   3.232   3.232   3.232   3.232   3.232   3.232   3.232   3.232   3.232   3.232   3.232   3.232   3.232   3.232   3.232   3.232   3.232   3.232   3.232   3.232   3.232   3.232   3.232   3.232   3.232   3.232   3.232   3.232   3.232   3.232   3.232   3.232   3.232   3.232   3.232
    78.14    3.232   3.232   3.232   3.232   3.232   3.232   3.232   3.232   3.232   3.232   3.232   3.232   3.232   3.232   3.232   3.232   3.232   3.232   3.232   3.232   3.232   3.232   3.232   3.232   3.232   3.232   3.232   3.232   3.232   3.232   3.232   3.232   3.232   3.232   3.232   3.232
    69.57    3.232   3.232   3.232   3.232   3.232   3.232   3.232   3.232   3.232   3.232   3.232   3.232   3.232   3.232   3.232   3.232   3.232   3.232   3.232   3.232   3.232   3.232   3.232   3.232   3.232   3.232   3.232   3.232   3.232   3.232   3.232   3.232   3.232   3.232   3.232   3.232
    61.00    3.232   3.232   3.232   3.232   3.232   3.232   3.232   3.232   3.232   3.232   3.232   3.232   3.232   3.232   3.232   3.232   3.232   3.232   3.232   3.232   3.232   3.232   3.232   3.232   3.232   3.232   3.232   3.232   3.232   3.232   3.232   3.232   3.232   3.232   3.232   3.232
    52.43    3.232   3.232   3.232   3.232   3.232   3.232   3.232   3.232   3.232   3.232   3.232   3.232   3.232   3.232   3.232   3.232   3.232   3.232   3.232   3.232   3.232   3.232   3.232   3.232   3.232   3.232   3.232   3.232   3.232   3.232   3.232   3.232   3.232   3.232   3.232   3.232
    43.86    3.232   3.232   3.232   3.232   3.232   3.232   3.232   3.232   3.232   3.232   3.232   3.232   3.232   3.232   3.232   3.232   3.232   3.232   3.232   3.232   3.232   3.232   3.232   3.232   3.232   3.232   3.232   3.232   3.232   3.232   3.232   3.232   3.232   3.232   3.232   3.232
    35.29    3.232   3.232   3.232   3.232   3.232   3.232   3.232   3.232   3.232   3.232   3.232   3.232   3.232   3.232   3.232   3.232   3.232   3.232   3.232   3.232   3.232   3.232   3.232   3.232   3.232   3.232   3.232   3.232   3.232   3.232   3.232   3.232   3.232   3.232   3.232   3.232
    26.71    3.232   3.232   3.232   3.232   3.232   3.232   3.232   3.232   3.232   3.232   3.232   3.232   3.232   3.232   3.232   3.232   3.232   3.232   3.232   3.232   3.232   3.232   3.232   3.232   3.232   3.232   3.232   3.232   3.232   3.232   3.232   3.232   3.232   3.232   3.232   3.232
    18.14    3.232   3.232   3.232   3.232   3.232   3.232   3.232   3.232   3.232   3.232   3.232   3.232   3.232   3.232   3.232   3.232   3.232   3.232   3.232   3.232   3.232   3.232   3.232   3.232   3.232   3.232   3.232   3.232   3.232   3.232   3.232   3.232   3.232   3.232   3.232   3.232
     9.57    3.232   3.232   3.232   3.232   3.232   3.232   3.232   3.232   3.232   3.232   3.232   3.232   3.232   3.232   3.232   3.232   3.232   3.232   3.232   3.232   3.232   3.232   3.232   3.232   3.232   3.232   3.232   3.232   3.232   3.232   3.232   3.232   3.232   3.232   3.232   3.232
     1.00    3.232   3.232   3.232   3.232   3.232   3.232   3.232   3.232   3.232   3.232   3.232   3.232   3.232   3.232   3.232   3.232   3.232   3.232   3.232   3.232   3.232   3.232   3.232   3.232   3.232   3.232   3.232   3.232   3.232   3.232   3.232   3.232   3.232   3.232   3.232   3.232

   Mean standard deviation across all grid points:
      u component:    3.303 m/s
      v component:    3.232 m/s
      w component:    3.232 m/s


U-component (X) statistics from the interpolated hub point:

   Mean =  19.9462 m/s
   TI   =  13.0476 %


Normalizing Parameters for Binary Data (approximate statistics):

   UBar  =  19.9474 m/s
   TI(u) =  15.1853 %
   TI(v) =  16.2024 %
   TI(w) =  16.2024 %

   Height Offset =   0.0000 m
   Grid Base     =   1.0000 m

Creating a PERIODIC output file.


Processing complete.  115.42 CPU seconds used.
