
This summary file was generated by TurbSim (v2.00.07a-bjj, 14-Jun-2016) on 03-Nov-2023 at 03:24:11.


Runtime Options:

      4701  Random seed #1
    RANLUX  Type of random number generator
         F  Output binary HH turbulence parameters?
         F  Output formatted turbulence parameters?
         F  Output AeroDyn HH files?
         F  Output AeroDyn FF files?
         T  Output BLADED FF files?
         F  Output tower data?
         F  Output formatted FF files?
         F  Output coherent turbulence time step file?
         T  Clockwise rotation when looking downwind?
 0 -  NONE  IEC turbulence models scaled to exact specified standard deviation


Turbine/Model Specifications:

        36  Vertical grid-point matrix dimension
        36  Horizontal grid-point matrix dimension
     0.100  Time step [seconds]
   660.000  Analysis time [seconds]
   660.000  Usable output time [seconds]
   151.000  Hub height [m]
   300.000  Grid height [m]
   300.000  Grid width [m]
     0.000  Vertical flow angle [degrees]
     0.000  Horizontal flow angle [degrees]


Meteorological Boundary Conditions:

    IECVKM  IEC von Karman spectral model
         1  IEC standard: IEC 61400-1 Ed. 3: 2005
         A  IEC turbulence characteristic
       NTM  IEC Normal Turbulence Model
       N/A  IEC Extreme Turbulence Model (ETM) "c" parameter [m/s]
       PL   Wind profile type
   153.000  Reference height [m]
    20.000  Reference wind speed [m/s]
       N/A  Jet height [m]
     0.200  Power law exponent
     0.030  Surface roughness length [m]


Non-IEC Meteorological Boundary Conditions:

       N/A  Site latitude [degrees]
       N/A  Gradient Richardson number
       N/A  Friction or shear velocity [m/s]
       N/A  Mixing layer depth [m]
       N/A  Mean hub u'w' Reynolds stress
       N/A  Mean hub u'v' Reynolds stress
       N/A  Mean hub v'w' Reynolds stress


Spatial Coherence Models:

       IEC  u-component coherence model
      NONE  v-component coherence model
      NONE  w-component coherence model
(   12.000, 0.353E-03)  u-component coherence parameters
                   N/A  v-component coherence parameters
                   N/A  w-component coherence parameters
       N/A  Coherence exponent


You have requested that the following file(s) be generated:

   G:\2023\OpenWECDV1.0.0_x64\BaseLIne\wind\WindL_V_20_seed_4701.wnd (AeroDyn/BLADED full-field wnd file)


Turbulence Simulation Scaling Parameter Summary:

   Turbulence model used                            =  IEC von Karman
   Turbulence characteristic                        =  A
   IEC turbulence type                              =  Normal Turbulence Model
   IEC standard                                     =  IEC 61400-1 Ed. 3: 2005
   Mean wind speed at hub height                    =   19.947 m/s
   Expected value of turbulence intensity at 15 m/s =   16.000%
   Characteristic value of standard deviation       =    3.290 m/s
   Turbulence scale                                 =   42.000 m
   Isotropic integral scale                         =  147.000 m
   Characteristic value of hub turbulence intensity =   16.492%
   Gradient Richardson number                       =    0.000

   Wind profile type                                =  Power law
   Power law exponent                               =    0.200
   Mean shear across rotor disk                     =    0.052 (m/s)/m
   Assumed rotor diameter                           =  300.000 m
   Surface roughness length                         =    0.030 m

   Nyquist frequency of turbulent wind field        =    5.000 Hz

   Number of time steps in the FFT                  =     6600
   Number of time steps output                      =     6600
   Number of points simulated                       =     1297


Mean Flow Angles:

   Vertical   =   0.0 degrees
   Horizontal =   0.0 degrees

Mean Wind Speed Profile:

   Height    Wind Speed   Horizontal Angle  Vertical Angle  U-comp (X)   V-comp (Y)   W-comp (Z)
     (m)        (m/s)         (degrees)       (degrees)       (m/s)        (m/s)        (m/s)   
   ------    ----------   ----------------  --------------  ----------   ----------   ----------
    301.0       22.90            0.00            0.00         22.90         0.00         0.00
    292.4       22.77            0.00            0.00         22.77         0.00         0.00
    283.9       22.63            0.00            0.00         22.63         0.00         0.00
    275.3       22.49            0.00            0.00         22.49         0.00         0.00
    266.7       22.35            0.00            0.00         22.35         0.00         0.00
    258.1       22.21            0.00            0.00         22.21         0.00         0.00
    249.6       22.06            0.00            0.00         22.06         0.00         0.00
    241.0       21.90            0.00            0.00         21.90         0.00         0.00
    232.4       21.74            0.00            0.00         21.74         0.00         0.00
    223.9       21.58            0.00            0.00         21.58         0.00         0.00
    215.3       21.41            0.00            0.00         21.41         0.00         0.00
    206.7       21.24            0.00            0.00         21.24         0.00         0.00
    198.1       21.06            0.00            0.00         21.06         0.00         0.00
    189.6       20.88            0.00            0.00         20.88         0.00         0.00
    181.0       20.68            0.00            0.00         20.68         0.00         0.00
    172.4       20.48            0.00            0.00         20.48         0.00         0.00
    163.9       20.28            0.00            0.00         20.28         0.00         0.00
    155.3       20.06            0.00            0.00         20.06         0.00         0.00
    151.0       19.95            0.00            0.00         19.95         0.00         0.00
    146.7       19.83            0.00            0.00         19.83         0.00         0.00
    138.1       19.60            0.00            0.00         19.60         0.00         0.00
    129.6       19.35            0.00            0.00         19.35         0.00         0.00
    121.0       19.08            0.00            0.00         19.08         0.00         0.00
    112.4       18.80            0.00            0.00         18.80         0.00         0.00
    103.9       18.51            0.00            0.00         18.51         0.00         0.00
     95.3       18.19            0.00            0.00         18.19         0.00         0.00
     86.7       17.85            0.00            0.00         17.85         0.00         0.00
     78.1       17.49            0.00            0.00         17.49         0.00         0.00
     69.6       17.08            0.00            0.00         17.08         0.00         0.00
     61.0       16.64            0.00            0.00         16.64         0.00         0.00
     52.4       16.14            0.00            0.00         16.14         0.00         0.00
     43.9       15.58            0.00            0.00         15.58         0.00         0.00
     35.3       14.91            0.00            0.00         14.91         0.00         0.00
     26.7       14.11            0.00            0.00         14.11         0.00         0.00
     18.1       13.06            0.00            0.00         13.06         0.00         0.00
      9.6       11.49            0.00            0.00         11.49         0.00         0.00
      1.0        7.31            0.00            0.00          7.31         0.00         0.00


Harvested Random Seeds after Generation of the Random Numbers:

    119307688 K 1
            0 K 2


Hub-Height Simulated Turbulence Statistical Summary:

   Type of Wind        Min (m/s)   Mean (m/s)    Max (m/s)  Sigma (m/s)       TI (%)
   ----------------    ---------   ----------    ---------  -----------       ------
   Longitudinal (u)        12.04        19.95        28.58        2.824       14.158
   Lateral (v)            -13.10         0.00         9.35        3.232       16.202
   Vertical (w)            -8.64        -0.00        11.23        3.232       16.202
   U component             12.04        19.95        28.58        2.824       14.158
   V component            -13.10         0.00         9.35        3.232       16.202
   W component             -8.64        -0.00        11.23        3.232       16.202
   Horizontal (U&V)        12.05        20.21        28.88        2.832       14.017
   Total                   13.06        20.47        28.88        2.803       13.694

                       Min Reynolds     Mean Reynolds    Max Reynolds    Correlation
   Product             Stress (m/s)^2   Stress (m/s)^2   Stress (m/s)^2  Coefficient
   ----------------    --------------   --------------   --------------  -----------
   u'w'                    -50.323             0.303            40.633         0.033
   u'v'                    -60.545            -0.014            35.522        -0.002
   v'w'                    -57.188             1.496            68.006         0.143


   Friction Velocity (Ustar)  =      0.550 m/s
   Maximum Instantaneous TKE  =    100.335 (m/s)^2
   Maximum Instantaneous CTKE =     39.392 (m/s)^2


Grid Point Variance Summary:

   Y-coord -150.00 -141.43 -132.86 -124.29 -115.71 -107.14  -98.57  -90.00  -81.43  -72.86  -64.29  -55.71  -47.14  -38.57  -30.00  -21.43  -12.86   -4.29    4.29   12.86   21.43   30.00   38.57   47.14   55.71   64.29   72.86   81.43   90.00   98.57  107.14  115.71  124.29  132.86  141.43  150.00

   Height   Standard deviation at grid points for the u component:
   301.00    3.109   2.937   2.986   2.989   3.307   3.362   3.521   3.388   3.333   3.241   3.107   3.107   3.043   3.079   2.993   2.894   2.820   2.885   2.793   2.769   2.758   2.556   2.870   2.954   2.981   3.028   3.015   3.064   3.020   3.015   2.947   3.153   3.149   3.076   3.098   3.279
   292.43    3.231   3.032   3.090   3.256   3.210   3.263   3.374   3.492   3.412   3.198   3.078   2.964   3.084   3.043   2.926   2.925   2.808   2.814   2.839   2.701   2.783   2.758   2.996   3.000   2.984   2.961   2.978   2.909   2.874   2.970   3.027   2.958   3.063   3.013   3.230   3.343
   283.86    3.135   3.046   3.234   3.183   3.162   3.243   3.346   3.520   3.308   3.260   3.165   3.069   2.913   2.921   2.886   2.944   2.831   2.942   2.892   2.791   2.775   2.809   2.925   2.973   2.987   2.969   2.979   3.049   3.007   2.930   3.057   3.167   3.161   3.056   3.133   3.409
   275.29    3.271   3.108   3.100   3.188   3.076   2.943   3.209   3.322   3.335   3.095   3.001   3.050   2.997   3.115   2.970   2.753   2.826   2.919   3.084   2.802   2.927   3.006   2.907   2.873   3.036   3.014   2.933   3.006   2.872   2.995   3.109   3.214   3.228   3.274   3.189   3.367
   266.71    3.293   2.953   2.925   3.034   3.023   3.068   3.139   3.284   3.232   3.222   3.178   3.051   2.913   2.974   2.898   2.931   2.881   2.883   2.982   2.999   3.123   2.888   2.874   2.970   3.018   3.044   3.044   2.786   2.944   2.917   2.996   3.103   3.060   3.133   3.248   3.339
   258.14    3.022   2.977   3.009   2.932   2.712   2.753   3.024   3.234   3.113   2.972   3.051   2.969   3.073   3.092   2.995   2.978   2.962   2.878   2.810   2.902   3.043   3.162   3.047   3.139   3.082   3.021   2.899   2.806   3.030   3.200   3.078   3.068   3.114   3.152   3.295   3.192
   249.57    3.075   3.112   3.090   2.939   2.870   2.960   3.180   3.281   3.078   3.044   3.093   3.033   3.162   3.152   3.015   3.085   3.033   2.755   2.803   3.016   3.126   3.102   3.081   3.115   3.044   2.974   2.892   2.921   3.150   3.114   2.942   2.883   2.999   3.088   3.077   3.242
   241.00    3.190   3.117   3.083   3.205   3.161   3.246   3.292   3.214   3.231   3.032   2.968   3.023   3.199   3.216   3.171   3.154   2.979   2.936   2.989   3.173   3.182   3.059   3.086   3.151   2.961   3.016   3.076   2.901   2.878   2.953   2.881   3.008   3.036   3.143   3.143   3.273
   232.43    3.131   3.027   3.144   3.193   3.272   3.328   3.243   3.216   3.254   3.280   3.112   3.146   3.219   3.100   3.090   3.213   2.953   2.959   3.063   3.155   3.156   3.106   3.066   2.958   2.794   2.934   3.040   3.100   2.865   2.924   2.817   2.970   2.974   2.929   3.015   3.111
   223.86    3.015   2.889   3.010   3.092   3.180   3.245   3.339   3.311   3.210   3.100   3.082   3.204   3.166   3.148   3.206   3.182   3.109   3.036   3.031   3.151   3.113   3.135   3.062   2.972   2.895   2.976   2.920   2.954   2.956   2.941   2.891   2.878   2.899   2.876   2.921   3.026
   215.29    2.999   2.935   2.876   3.173   3.138   3.145   3.165   3.127   3.246   3.056   2.914   2.982   2.960   2.954   3.042   3.164   3.001   2.991   2.937   3.037   3.003   3.078   2.962   3.083   3.138   2.993   2.986   2.956   2.898   3.227   2.987   2.974   3.058   3.031   2.919   3.002
   206.71    2.874   2.797   2.914   2.947   3.030   3.150   3.045   3.027   3.157   3.224   3.175   3.242   2.977   2.949   2.827   2.882   3.022   2.922   2.952   2.973   2.943   3.065   2.928   3.022   2.942   2.835   2.874   2.947   3.134   3.247   3.040   3.106   3.155   3.178   2.976   2.880
   198.14    2.896   2.845   2.931   3.033   3.080   3.016   2.841   3.153   3.202   3.307   3.136   3.251   3.005   3.013   3.011   3.045   2.946   2.936   2.871   2.978   3.144   3.065   3.045   3.072   3.123   3.082   3.029   3.040   3.123   3.163   2.883   2.981   3.053   3.204   3.053   3.135
   189.57    3.101   2.905   2.953   2.902   3.064   2.908   3.126   3.129   3.113   3.271   3.268   3.174   2.955   2.888   2.927   2.951   2.919   2.987   2.886   2.955   3.077   3.232   3.126   3.176   3.091   3.172   3.109   3.199   3.276   3.106   3.140   3.035   3.029   3.052   3.013   3.157
   181.00    3.206   3.030   3.198   3.083   3.030   2.949   3.126   3.287   3.173   3.087   3.174   3.073   2.821   2.913   2.814   2.848   2.845   2.949   2.949   2.882   2.909   2.896   2.995   3.017   3.095   2.978   3.049   3.183   3.242   3.154   3.029   3.229   2.965   3.044   3.268   3.246
   172.43    3.172   3.144   3.067   3.131   3.121   3.046   3.073   3.184   3.159   3.028   3.008   2.884   3.010   2.771   2.779   2.799   2.703   2.976   2.931   2.974   2.701   2.794   2.886   2.931   3.023   2.856   2.842   3.014   3.046   2.955   3.058   3.043   3.079   3.065   3.173   3.288
   163.86    3.341   3.185   3.105   2.993   3.030   3.124   3.106   3.209   2.956   2.976   2.935   2.916   2.971   2.901   2.912   2.827   2.739   2.929   2.986   2.788   2.831   2.829   2.992   2.938   3.036   2.916   2.849   2.970   3.107   3.255   3.204   3.035   3.095   3.040   3.170   3.400
   155.29    3.349   3.178   3.122   2.837   2.952   3.114   3.117   3.079   2.969   2.930   2.840   2.950   2.833   2.843   2.866   2.930   2.879   2.802   2.953   2.993   2.924   2.881   2.977   3.020   3.061   2.953   2.890   2.898   3.020   3.133   3.119   3.027   3.183   3.189   3.247   3.202
   146.71    3.350   3.091   2.879   2.817   3.082   3.087   3.116   2.976   3.015   2.910   2.946   2.925   2.970   2.829   3.010   3.026   2.846   2.957   2.936   3.061   3.117   3.005   3.132   3.116   3.177   3.001   3.068   3.170   3.077   2.981   3.031   2.976   3.199   3.388   3.314   3.328
   138.14    3.387   3.158   3.072   2.933   3.065   3.064   3.230   3.135   2.964   3.009   3.044   3.109   2.986   3.012   2.970   3.071   3.071   3.062   3.045   3.090   3.265   3.184   3.270   3.135   3.183   3.035   3.150   3.173   3.000   3.002   2.975   3.082   3.247   3.474   3.510   3.524
   129.57    3.371   3.083   3.176   3.137   3.242   3.031   3.159   2.979   2.971   3.074   3.177   3.186   3.133   3.342   3.091   3.164   3.100   3.210   2.995   2.950   3.175   3.229   3.194   3.253   3.018   3.083   3.181   3.167   2.877   2.994   3.035   3.225   3.499   3.632   3.693   3.618
   121.00    3.394   3.347   3.284   3.371   3.263   3.212   3.017   3.152   3.001   3.119   3.166   3.327   3.200   3.417   3.415   3.315   3.328   3.180   3.179   3.021   3.111   3.328   3.300   3.331   3.192   3.125   3.014   3.207   2.965   2.973   3.249   3.471   3.710   3.634   3.586   3.610
   112.43    3.391   3.319   3.421   3.352   3.364   3.141   3.097   3.355   3.084   3.153   3.232   3.225   3.267   3.386   3.315   3.466   3.304   3.219   3.064   3.057   3.178   3.367   3.344   3.360   3.139   3.121   3.025   3.045   3.048   3.163   3.421   3.573   3.659   3.685   3.554   3.488
   103.86    3.182   3.261   3.312   3.415   3.142   3.123   3.154   3.143   3.029   3.092   3.068   3.069   3.101   3.260   3.268   3.301   3.178   3.214   3.137   3.199   3.231   3.314   3.285   3.224   3.118   3.198   3.109   2.958   3.171   3.275   3.566   3.611   3.700   3.539   3.578   3.496
    95.29    3.134   3.313   3.252   3.277   3.196   3.075   3.099   3.042   3.138   3.194   3.193   3.033   2.993   3.322   3.324   3.271   3.164   3.089   3.305   3.210   3.153   3.200   3.197   3.264   3.010   3.129   3.195   3.160   3.178   3.334   3.408   3.610   3.523   3.425   3.593   3.545
    86.71    3.134   3.298   3.408   3.270   3.196   3.152   3.121   3.004   3.248   3.268   3.265   3.152   3.180   3.307   3.267   3.154   3.105   3.273   3.369   3.332   3.116   3.215   3.398   3.303   3.084   3.019   3.144   3.131   3.213   3.525   3.447   3.494   3.596   3.491   3.564   3.656
    78.14    3.355   3.432   3.462   3.337   3.316   3.162   3.287   3.233   3.242   3.186   3.100   3.074   2.999   3.232   3.269   3.077   3.090   3.224   3.207   3.167   3.047   3.201   3.379   3.243   3.221   3.211   3.205   3.177   3.415   3.396   3.444   3.472   3.562   3.408   3.529   3.445
    69.57    3.479   3.526   3.496   3.366   3.403   3.419   3.517   3.489   3.333   3.126   3.122   3.025   2.946   3.121   2.915   2.990   3.122   3.242   3.118   3.160   3.136   3.125   3.208   3.215   3.142   3.333   3.245   3.393   3.471   3.386   3.408   3.489   3.467   3.491   3.613   3.494
    61.00    3.380   3.427   3.669   3.535   3.472   3.505   3.491   3.383   3.321   3.275   2.981   2.995   3.136   3.076   2.978   3.114   3.098   3.195   3.118   3.247   3.069   2.963   3.053   3.077   3.165   3.372   3.372   3.520   3.596   3.366   3.342   3.378   3.382   3.396   3.359   3.492
    52.43    3.586   3.478   3.524   3.443   3.444   3.493   3.421   3.496   3.262   3.170   3.083   3.171   3.182   3.045   2.889   3.012   3.226   2.980   3.089   3.189   3.051   3.056   3.028   3.007   3.081   3.147   3.296   3.437   3.444   3.314   3.362   3.340   3.335   3.252   3.472   3.532
    43.86    3.520   3.493   3.405   3.522   3.460   3.383   3.414   3.280   3.198   3.016   2.990   3.182   3.299   3.185   3.025   3.107   3.076   3.118   3.007   3.086   2.997   3.078   3.150   3.035   3.040   3.093   3.147   3.239   3.359   3.449   3.386   3.202   3.306   3.306   3.574   3.629
    35.29    3.419   3.339   3.411   3.407   3.351   3.483   3.384   3.204   3.144   2.881   3.099   3.240   3.228   3.075   3.163   3.178   3.216   3.024   2.792   2.953   2.976   3.007   3.197   3.211   3.103   3.133   3.233   3.155   3.352   3.440   3.505   3.210   3.264   3.371   3.528   3.776
    26.71    3.146   3.274   3.334   3.358   3.290   3.270   3.383   3.250   3.100   3.011   3.177   3.049   3.118   3.014   3.156   3.169   3.227   3.048   2.942   2.823   2.905   3.009   3.138   3.092   3.142   3.022   3.198   3.173   3.225   3.215   3.368   3.273   3.252   3.359   3.516   3.760
    18.14    3.203   3.382   3.201   3.327   3.242   3.254   3.347   3.371   3.212   3.069   3.066   2.960   3.041   3.050   3.029   3.165   3.172   3.043   3.101   3.036   2.994   3.067   3.168   3.101   3.240   3.038   3.175   3.213   3.106   3.227   3.207   3.370   3.292   3.502   3.435   3.498
     9.57    3.029   3.255   3.264   3.388   3.398   3.449   3.595   3.410   3.281   3.285   3.287   3.144   3.009   3.155   2.984   3.132   3.255   3.147   3.117   2.984   2.990   3.131   3.216   3.184   3.278   3.155   3.083   2.972   3.018   3.225   3.210   3.373   3.459   3.495   3.598   3.404
     1.00    3.224   3.236   3.420   3.248   3.272   3.294   3.526   3.498   3.415   3.460   3.409   3.200   3.030   3.029   2.982   3.100   2.951   3.026   3.139   3.083   3.137   3.127   3.117   3.250   3.170   3.306   3.120   2.951   3.045   3.129   3.312   3.309   3.349   3.356   3.186   3.363

   Height   Standard deviation at grid points for the v component:
   301.00    3.232   3.232   3.232   3.232   3.232   3.232   3.232   3.232   3.232   3.232   3.232   3.232   3.232   3.232   3.232   3.232   3.232   3.232   3.232   3.232   3.232   3.232   3.232   3.232   3.232   3.232   3.232   3.232   3.232   3.232   3.232   3.232   3.232   3.232   3.232   3.232
   292.43    3.232   3.232   3.232   3.232   3.232   3.232   3.232   3.232   3.232   3.232   3.232   3.232   3.232   3.232   3.232   3.232   3.232   3.232   3.232   3.232   3.232   3.232   3.232   3.232   3.232   3.232   3.232   3.232   3.232   3.232   3.232   3.232   3.232   3.232   3.232   3.232
   283.86    3.232   3.232   3.232   3.232   3.232   3.232   3.232   3.232   3.232   3.232   3.232   3.232   3.232   3.232   3.232   3.232   3.232   3.232   3.232   3.232   3.232   3.232   3.232   3.232   3.232   3.232   3.232   3.232   3.232   3.232   3.232   3.232   3.232   3.232   3.232   3.232
   275.29    3.232   3.232   3.232   3.232   3.232   3.232   3.232   3.232   3.232   3.232   3.232   3.232   3.232   3.232   3.232   3.232   3.232   3.232   3.232   3.232   3.232   3.232   3.232   3.232   3.232   3.232   3.232   3.232   3.232   3.232   3.232   3.232   3.232   3.232   3.232   3.232
   266.71    3.232   3.232   3.232   3.232   3.232   3.232   3.232   3.232   3.232   3.232   3.232   3.232   3.232   3.232   3.232   3.232   3.232   3.232   3.232   3.232   3.232   3.232   3.232   3.232   3.232   3.232   3.232   3.232   3.232   3.232   3.232   3.232   3.232   3.232   3.232   3.232
   258.14    3.232   3.232   3.232   3.232   3.232   3.232   3.232   3.232   3.232   3.232   3.232   3.232   3.232   3.232   3.232   3.232   3.232   3.232   3.232   3.232   3.232   3.232   3.232   3.232   3.232   3.232   3.232   3.232   3.232   3.232   3.232   3.232   3.232   3.232   3.232   3.232
   249.57    3.232   3.232   3.232   3.232   3.232   3.232   3.232   3.232   3.232   3.232   3.232   3.232   3.232   3.232   3.232   3.232   3.232   3.232   3.232   3.232   3.232   3.232   3.232   3.232   3.232   3.232   3.232   3.232   3.232   3.232   3.232   3.232   3.232   3.232   3.232   3.232
   241.00    3.232   3.232   3.232   3.232   3.232   3.232   3.232   3.232   3.232   3.232   3.232   3.232   3.232   3.232   3.232   3.232   3.232   3.232   3.232   3.232   3.232   3.232   3.232   3.232   3.232   3.232   3.232   3.232   3.232   3.232   3.232   3.232   3.232   3.232   3.232   3.232
   232.43    3.232   3.232   3.232   3.232   3.232   3.232   3.232   3.232   3.232   3.232   3.232   3.232   3.232   3.232   3.232   3.232   3.232   3.232   3.232   3.232   3.232   3.232   3.232   3.232   3.232   3.232   3.232   3.232   3.232   3.232   3.232   3.232   3.232   3.232   3.232   3.232
   223.86    3.232   3.232   3.232   3.232   3.232   3.232   3.232   3.232   3.232   3.232   3.232   3.232   3.232   3.232   3.232   3.232   3.232   3.232   3.232   3.232   3.232   3.232   3.232   3.232   3.232   3.232   3.232   3.232   3.232   3.232   3.232   3.232   3.232   3.232   3.232   3.232
   215.29    3.232   3.232   3.232   3.232   3.232   3.232   3.232   3.232   3.232   3.232   3.232   3.232   3.232   3.232   3.232   3.232   3.232   3.232   3.232   3.232   3.232   3.232   3.232   3.232   3.232   3.232   3.232   3.232   3.232   3.232   3.232   3.232   3.232   3.232   3.232   3.232
   206.71    3.232   3.232   3.232   3.232   3.232   3.232   3.232   3.232   3.232   3.232   3.232   3.232   3.232   3.232   3.232   3.232   3.232   3.232   3.232   3.232   3.232   3.232   3.232   3.232   3.232   3.232   3.232   3.232   3.232   3.232   3.232   3.232   3.232   3.232   3.232   3.232
   198.14    3.232   3.232   3.232   3.232   3.232   3.232   3.232   3.232   3.232   3.232   3.232   3.232   3.232   3.232   3.232   3.232   3.232   3.232   3.232   3.232   3.232   3.232   3.232   3.232   3.232   3.232   3.232   3.232   3.232   3.232   3.232   3.232   3.232   3.232   3.232   3.232
   189.57    3.232   3.232   3.232   3.232   3.232   3.232   3.232   3.232   3.232   3.232   3.232   3.232   3.232   3.232   3.232   3.232   3.232   3.232   3.232   3.232   3.232   3.232   3.232   3.232   3.232   3.232   3.232   3.232   3.232   3.232   3.232   3.232   3.232   3.232   3.232   3.232
   181.00    3.232   3.232   3.232   3.232   3.232   3.232   3.232   3.232   3.232   3.232   3.232   3.232   3.232   3.232   3.232   3.232   3.232   3.232   3.232   3.232   3.232   3.232   3.232   3.232   3.232   3.232   3.232   3.232   3.232   3.232   3.232   3.232   3.232   3.232   3.232   3.232
   172.43    3.232   3.232   3.232   3.232   3.232   3.232   3.232   3.232   3.232   3.232   3.232   3.232   3.232   3.232   3.232   3.232   3.232   3.232   3.232   3.232   3.232   3.232   3.232   3.232   3.232   3.232   3.232   3.232   3.232   3.232   3.232   3.232   3.232   3.232   3.232   3.232
   163.86    3.232   3.232   3.232   3.232   3.232   3.232   3.232   3.232   3.232   3.232   3.232   3.232   3.232   3.232   3.232   3.232   3.232   3.232   3.232   3.232   3.232   3.232   3.232   3.232   3.232   3.232   3.232   3.232   3.232   3.232   3.232   3.232   3.232   3.232   3.232   3.232
   155.29    3.232   3.232   3.232   3.232   3.232   3.232   3.232   3.232   3.232   3.232   3.232   3.232   3.232   3.232   3.232   3.232   3.232   3.232   3.232   3.232   3.232   3.232   3.232   3.232   3.232   3.232   3.232   3.232   3.232   3.232   3.232   3.232   3.232   3.232   3.232   3.232
   146.71    3.232   3.232   3.232   3.232   3.232   3.232   3.232   3.232   3.232   3.232   3.232   3.232   3.232   3.232   3.232   3.232   3.232   3.232   3.232   3.232   3.232   3.232   3.232   3.232   3.232   3.232   3.232   3.232   3.232   3.232   3.232   3.232   3.232   3.232   3.232   3.232
   138.14    3.232   3.232   3.232   3.232   3.232   3.232   3.232   3.232   3.232   3.232   3.232   3.232   3.232   3.232   3.232   3.232   3.232   3.232   3.232   3.232   3.232   3.232   3.232   3.232   3.232   3.232   3.232   3.232   3.232   3.232   3.232   3.232   3.232   3.232   3.232   3.232
   129.57    3.232   3.232   3.232   3.232   3.232   3.232   3.232   3.232   3.232   3.232   3.232   3.232   3.232   3.232   3.232   3.232   3.232   3.232   3.232   3.232   3.232   3.232   3.232   3.232   3.232   3.232   3.232   3.232   3.232   3.232   3.232   3.232   3.232   3.232   3.232   3.232
   121.00    3.232   3.232   3.232   3.232   3.232   3.232   3.232   3.232   3.232   3.232   3.232   3.232   3.232   3.232   3.232   3.232   3.232   3.232   3.232   3.232   3.232   3.232   3.232   3.232   3.232   3.232   3.232   3.232   3.232   3.232   3.232   3.232   3.232   3.232   3.232   3.232
   112.43    3.232   3.232   3.232   3.232   3.232   3.232   3.232   3.232   3.232   3.232   3.232   3.232   3.232   3.232   3.232   3.232   3.232   3.232   3.232   3.232   3.232   3.232   3.232   3.232   3.232   3.232   3.232   3.232   3.232   3.232   3.232   3.232   3.232   3.232   3.232   3.232
   103.86    3.232   3.232   3.232   3.232   3.232   3.232   3.232   3.232   3.232   3.232   3.232   3.232   3.232   3.232   3.232   3.232   3.232   3.232   3.232   3.232   3.232   3.232   3.232   3.232   3.232   3.232   3.232   3.232   3.232   3.232   3.232   3.232   3.232   3.232   3.232   3.232
    95.29    3.232   3.232   3.232   3.232   3.232   3.232   3.232   3.232   3.232   3.232   3.232   3.232   3.232   3.232   3.232   3.232   3.232   3.232   3.232   3.232   3.232   3.232   3.232   3.232   3.232   3.232   3.232   3.232   3.232   3.232   3.232   3.232   3.232   3.232   3.232   3.232
    86.71    3.232   3.232   3.232   3.232   3.232   3.232   3.232   3.232   3.232   3.232   3.232   3.232   3.232   3.232   3.232   3.232   3.232   3.232   3.232   3.232   3.232   3.232   3.232   3.232   3.232   3.232   3.232   3.232   3.232   3.232   3.232   3.232   3.232   3.232   3.232   3.232
    78.14    3.232   3.232   3.232   3.232   3.232   3.232   3.232   3.232   3.232   3.232   3.232   3.232   3.232   3.232   3.232   3.232   3.232   3.232   3.232   3.232   3.232   3.232   3.232   3.232   3.232   3.232   3.232   3.232   3.232   3.232   3.232   3.232   3.232   3.232   3.232   3.232
    69.57    3.232   3.232   3.232   3.232   3.232   3.232   3.232   3.232   3.232   3.232   3.232   3.232   3.232   3.232   3.232   3.232   3.232   3.232   3.232   3.232   3.232   3.232   3.232   3.232   3.232   3.232   3.232   3.232   3.232   3.232   3.232   3.232   3.232   3.232   3.232   3.232
    61.00    3.232   3.232   3.232   3.232   3.232   3.232   3.232   3.232   3.232   3.232   3.232   3.232   3.232   3.232   3.232   3.232   3.232   3.232   3.232   3.232   3.232   3.232   3.232   3.232   3.232   3.232   3.232   3.232   3.232   3.232   3.232   3.232   3.232   3.232   3.232   3.232
    52.43    3.232   3.232   3.232   3.232   3.232   3.232   3.232   3.232   3.232   3.232   3.232   3.232   3.232   3.232   3.232   3.232   3.232   3.232   3.232   3.232   3.232   3.232   3.232   3.232   3.232   3.232   3.232   3.232   3.232   3.232   3.232   3.232   3.232   3.232   3.232   3.232
    43.86    3.232   3.232   3.232   3.232   3.232   3.232   3.232   3.232   3.232   3.232   3.232   3.232   3.232   3.232   3.232   3.232   3.232   3.232   3.232   3.232   3.232   3.232   3.232   3.232   3.232   3.232   3.232   3.232   3.232   3.232   3.232   3.232   3.232   3.232   3.232   3.232
    35.29    3.232   3.232   3.232   3.232   3.232   3.232   3.232   3.232   3.232   3.232   3.232   3.232   3.232   3.232   3.232   3.232   3.232   3.232   3.232   3.232   3.232   3.232   3.232   3.232   3.232   3.232   3.232   3.232   3.232   3.232   3.232   3.232   3.232   3.232   3.232   3.232
    26.71    3.232   3.232   3.232   3.232   3.232   3.232   3.232   3.232   3.232   3.232   3.232   3.232   3.232   3.232   3.232   3.232   3.232   3.232   3.232   3.232   3.232   3.232   3.232   3.232   3.232   3.232   3.232   3.232   3.232   3.232   3.232   3.232   3.232   3.232   3.232   3.232
    18.14    3.232   3.232   3.232   3.232   3.232   3.232   3.232   3.232   3.232   3.232   3.232   3.232   3.232   3.232   3.232   3.232   3.232   3.232   3.232   3.232   3.232   3.232   3.232   3.232   3.232   3.232   3.232   3.232   3.232   3.232   3.232   3.232   3.232   3.232   3.232   3.232
     9.57    3.232   3.232   3.232   3.232   3.232   3.232   3.232   3.232   3.232   3.232   3.232   3.232   3.232   3.232   3.232   3.232   3.232   3.232   3.232   3.232   3.232   3.232   3.232   3.232   3.232   3.232   3.232   3.232   3.232   3.232   3.232   3.232   3.232   3.232   3.232   3.232
     1.00    3.232   3.232   3.232   3.232   3.232   3.232   3.232   3.232   3.232   3.232   3.232   3.232   3.232   3.232   3.232   3.232   3.232   3.232   3.232   3.232   3.232   3.232   3.232   3.232   3.232   3.232   3.232   3.232   3.232   3.232   3.232   3.232   3.232   3.232   3.232   3.232

   Height   Standard deviation at grid points for the w component:
   301.00    3.232   3.232   3.232   3.232   3.232   3.232   3.232   3.232   3.232   3.232   3.232   3.232   3.232   3.232   3.232   3.232   3.232   3.232   3.232   3.232   3.232   3.232   3.232   3.232   3.232   3.232   3.232   3.232   3.232   3.232   3.232   3.232   3.232   3.232   3.232   3.232
   292.43    3.232   3.232   3.232   3.232   3.232   3.232   3.232   3.232   3.232   3.232   3.232   3.232   3.232   3.232   3.232   3.232   3.232   3.232   3.232   3.232   3.232   3.232   3.232   3.232   3.232   3.232   3.232   3.232   3.232   3.232   3.232   3.232   3.232   3.232   3.232   3.232
   283.86    3.232   3.232   3.232   3.232   3.232   3.232   3.232   3.232   3.232   3.232   3.232   3.232   3.232   3.232   3.232   3.232   3.232   3.232   3.232   3.232   3.232   3.232   3.232   3.232   3.232   3.232   3.232   3.232   3.232   3.232   3.232   3.232   3.232   3.232   3.232   3.232
   275.29    3.232   3.232   3.232   3.232   3.232   3.232   3.232   3.232   3.232   3.232   3.232   3.232   3.232   3.232   3.232   3.232   3.232   3.232   3.232   3.232   3.232   3.232   3.232   3.232   3.232   3.232   3.232   3.232   3.232   3.232   3.232   3.232   3.232   3.232   3.232   3.232
   266.71    3.232   3.232   3.232   3.232   3.232   3.232   3.232   3.232   3.232   3.232   3.232   3.232   3.232   3.232   3.232   3.232   3.232   3.232   3.232   3.232   3.232   3.232   3.232   3.232   3.232   3.232   3.232   3.232   3.232   3.232   3.232   3.232   3.232   3.232   3.232   3.232
   258.14    3.232   3.232   3.232   3.232   3.232   3.232   3.232   3.232   3.232   3.232   3.232   3.232   3.232   3.232   3.232   3.232   3.232   3.232   3.232   3.232   3.232   3.232   3.232   3.232   3.232   3.232   3.232   3.232   3.232   3.232   3.232   3.232   3.232   3.232   3.232   3.232
   249.57    3.232   3.232   3.232   3.232   3.232   3.232   3.232   3.232   3.232   3.232   3.232   3.232   3.232   3.232   3.232   3.232   3.232   3.232   3.232   3.232   3.232   3.232   3.232   3.232   3.232   3.232   3.232   3.232   3.232   3.232   3.232   3.232   3.232   3.232   3.232   3.232
   241.00    3.232   3.232   3.232   3.232   3.232   3.232   3.232   3.232   3.232   3.232   3.232   3.232   3.232   3.232   3.232   3.232   3.232   3.232   3.232   3.232   3.232   3.232   3.232   3.232   3.232   3.232   3.232   3.232   3.232   3.232   3.232   3.232   3.232   3.232   3.232   3.232
   232.43    3.232   3.232   3.232   3.232   3.232   3.232   3.232   3.232   3.232   3.232   3.232   3.232   3.232   3.232   3.232   3.232   3.232   3.232   3.232   3.232   3.232   3.232   3.232   3.232   3.232   3.232   3.232   3.232   3.232   3.232   3.232   3.232   3.232   3.232   3.232   3.232
   223.86    3.232   3.232   3.232   3.232   3.232   3.232   3.232   3.232   3.232   3.232   3.232   3.232   3.232   3.232   3.232   3.232   3.232   3.232   3.232   3.232   3.232   3.232   3.232   3.232   3.232   3.232   3.232   3.232   3.232   3.232   3.232   3.232   3.232   3.232   3.232   3.232
   215.29    3.232   3.232   3.232   3.232   3.232   3.232   3.232   3.232   3.232   3.232   3.232   3.232   3.232   3.232   3.232   3.232   3.232   3.232   3.232   3.232   3.232   3.232   3.232   3.232   3.232   3.232   3.232   3.232   3.232   3.232   3.232   3.232   3.232   3.232   3.232   3.232
   206.71    3.232   3.232   3.232   3.232   3.232   3.232   3.232   3.232   3.232   3.232   3.232   3.232   3.232   3.232   3.232   3.232   3.232   3.232   3.232   3.232   3.232   3.232   3.232   3.232   3.232   3.232   3.232   3.232   3.232   3.232   3.232   3.232   3.232   3.232   3.232   3.232
   198.14    3.232   3.232   3.232   3.232   3.232   3.232   3.232   3.232   3.232   3.232   3.232   3.232   3.232   3.232   3.232   3.232   3.232   3.232   3.232   3.232   3.232   3.232   3.232   3.232   3.232   3.232   3.232   3.232   3.232   3.232   3.232   3.232   3.232   3.232   3.232   3.232
   189.57    3.232   3.232   3.232   3.232   3.232   3.232   3.232   3.232   3.232   3.232   3.232   3.232   3.232   3.232   3.232   3.232   3.232   3.232   3.232   3.232   3.232   3.232   3.232   3.232   3.232   3.232   3.232   3.232   3.232   3.232   3.232   3.232   3.232   3.232   3.232   3.232
   181.00    3.232   3.232   3.232   3.232   3.232   3.232   3.232   3.232   3.232   3.232   3.232   3.232   3.232   3.232   3.232   3.232   3.232   3.232   3.232   3.232   3.232   3.232   3.232   3.232   3.232   3.232   3.232   3.232   3.232   3.232   3.232   3.232   3.232   3.232   3.232   3.232
   172.43    3.232   3.232   3.232   3.232   3.232   3.232   3.232   3.232   3.232   3.232   3.232   3.232   3.232   3.232   3.232   3.232   3.232   3.232   3.232   3.232   3.232   3.232   3.232   3.232   3.232   3.232   3.232   3.232   3.232   3.232   3.232   3.232   3.232   3.232   3.232   3.232
   163.86    3.232   3.232   3.232   3.232   3.232   3.232   3.232   3.232   3.232   3.232   3.232   3.232   3.232   3.232   3.232   3.232   3.232   3.232   3.232   3.232   3.232   3.232   3.232   3.232   3.232   3.232   3.232   3.232   3.232   3.232   3.232   3.232   3.232   3.232   3.232   3.232
   155.29    3.232   3.232   3.232   3.232   3.232   3.232   3.232   3.232   3.232   3.232   3.232   3.232   3.232   3.232   3.232   3.232   3.232   3.232   3.232   3.232   3.232   3.232   3.232   3.232   3.232   3.232   3.232   3.232   3.232   3.232   3.232   3.232   3.232   3.232   3.232   3.232
   146.71    3.232   3.232   3.232   3.232   3.232   3.232   3.232   3.232   3.232   3.232   3.232   3.232   3.232   3.232   3.232   3.232   3.232   3.232   3.232   3.232   3.232   3.232   3.232   3.232   3.232   3.232   3.232   3.232   3.232   3.232   3.232   3.232   3.232   3.232   3.232   3.232
   138.14    3.232   3.232   3.232   3.232   3.232   3.232   3.232   3.232   3.232   3.232   3.232   3.232   3.232   3.232   3.232   3.232   3.232   3.232   3.232   3.232   3.232   3.232   3.232   3.232   3.232   3.232   3.232   3.232   3.232   3.232   3.232   3.232   3.232   3.232   3.232   3.232
   129.57    3.232   3.232   3.232   3.232   3.232   3.232   3.232   3.232   3.232   3.232   3.232   3.232   3.232   3.232   3.232   3.232   3.232   3.232   3.232   3.232   3.232   3.232   3.232   3.232   3.232   3.232   3.232   3.232   3.232   3.232   3.232   3.232   3.232   3.232   3.232   3.232
   121.00    3.232   3.232   3.232   3.232   3.232   3.232   3.232   3.232   3.232   3.232   3.232   3.232   3.232   3.232   3.232   3.232   3.232   3.232   3.232   3.232   3.232   3.232   3.232   3.232   3.232   3.232   3.232   3.232   3.232   3.232   3.232   3.232   3.232   3.232   3.232   3.232
   112.43    3.232   3.232   3.232   3.232   3.232   3.232   3.232   3.232   3.232   3.232   3.232   3.232   3.232   3.232   3.232   3.232   3.232   3.232   3.232   3.232   3.232   3.232   3.232   3.232   3.232   3.232   3.232   3.232   3.232   3.232   3.232   3.232   3.232   3.232   3.232   3.232
   103.86    3.232   3.232   3.232   3.232   3.232   3.232   3.232   3.232   3.232   3.232   3.232   3.232   3.232   3.232   3.232   3.232   3.232   3.232   3.232   3.232   3.232   3.232   3.232   3.232   3.232   3.232   3.232   3.232   3.232   3.232   3.232   3.232   3.232   3.232   3.232   3.232
    95.29    3.232   3.232   3.232   3.232   3.232   3.232   3.232   3.232   3.232   3.232   3.232   3.232   3.232   3.232   3.232   3.232   3.232   3.232   3.232   3.232   3.232   3.232   3.232   3.232   3.232   3.232   3.232   3.232   3.232   3.232   3.232   3.232   3.232   3.232   3.232   3.232
    86.71    3.232   3.232   3.232   3.232   3.232   3.232   3.232   3.232   3.232   3.232   3.232   3.232   3.232   3.232   3.232   3.232   3.232   3.232   3.232   3.232   3.232   3.232   3.232   3.232   3.232   3.232   3.232   3.232   3.232   3.232   3.232   3.232   3.232   3.232   3.232   3.232
    78.14    3.232   3.232   3.232   3.232   3.232   3.232   3.232   3.232   3.232   3.232   3.232   3.232   3.232   3.232   3.232   3.232   3.232   3.232   3.232   3.232   3.232   3.232   3.232   3.232   3.232   3.232   3.232   3.232   3.232   3.232   3.232   3.232   3.232   3.232   3.232   3.232
    69.57    3.232   3.232   3.232   3.232   3.232   3.232   3.232   3.232   3.232   3.232   3.232   3.232   3.232   3.232   3.232   3.232   3.232   3.232   3.232   3.232   3.232   3.232   3.232   3.232   3.232   3.232   3.232   3.232   3.232   3.232   3.232   3.232   3.232   3.232   3.232   3.232
    61.00    3.232   3.232   3.232   3.232   3.232   3.232   3.232   3.232   3.232   3.232   3.232   3.232   3.232   3.232   3.232   3.232   3.232   3.232   3.232   3.232   3.232   3.232   3.232   3.232   3.232   3.232   3.232   3.232   3.232   3.232   3.232   3.232   3.232   3.232   3.232   3.232
    52.43    3.232   3.232   3.232   3.232   3.232   3.232   3.232   3.232   3.232   3.232   3.232   3.232   3.232   3.232   3.232   3.232   3.232   3.232   3.232   3.232   3.232   3.232   3.232   3.232   3.232   3.232   3.232   3.232   3.232   3.232   3.232   3.232   3.232   3.232   3.232   3.232
    43.86    3.232   3.232   3.232   3.232   3.232   3.232   3.232   3.232   3.232   3.232   3.232   3.232   3.232   3.232   3.232   3.232   3.232   3.232   3.232   3.232   3.232   3.232   3.232   3.232   3.232   3.232   3.232   3.232   3.232   3.232   3.232   3.232   3.232   3.232   3.232   3.232
    35.29    3.232   3.232   3.232   3.232   3.232   3.232   3.232   3.232   3.232   3.232   3.232   3.232   3.232   3.232   3.232   3.232   3.232   3.232   3.232   3.232   3.232   3.232   3.232   3.232   3.232   3.232   3.232   3.232   3.232   3.232   3.232   3.232   3.232   3.232   3.232   3.232
    26.71    3.232   3.232   3.232   3.232   3.232   3.232   3.232   3.232   3.232   3.232   3.232   3.232   3.232   3.232   3.232   3.232   3.232   3.232   3.232   3.232   3.232   3.232   3.232   3.232   3.232   3.232   3.232   3.232   3.232   3.232   3.232   3.232   3.232   3.232   3.232   3.232
    18.14    3.232   3.232   3.232   3.232   3.232   3.232   3.232   3.232   3.232   3.232   3.232   3.232   3.232   3.232   3.232   3.232   3.232   3.232   3.232   3.232   3.232   3.232   3.232   3.232   3.232   3.232   3.232   3.232   3.232   3.232   3.232   3.232   3.232   3.232   3.232   3.232
     9.57    3.232   3.232   3.232   3.232   3.232   3.232   3.232   3.232   3.232   3.232   3.232   3.232   3.232   3.232   3.232   3.232   3.232   3.232   3.232   3.232   3.232   3.232   3.232   3.232   3.232   3.232   3.232   3.232   3.232   3.232   3.232   3.232   3.232   3.232   3.232   3.232
     1.00    3.232   3.232   3.232   3.232   3.232   3.232   3.232   3.232   3.232   3.232   3.232   3.232   3.232   3.232   3.232   3.232   3.232   3.232   3.232   3.232   3.232   3.232   3.232   3.232   3.232   3.232   3.232   3.232   3.232   3.232   3.232   3.232   3.232   3.232   3.232   3.232

   Mean standard deviation across all grid points:
      u component:    3.135 m/s
      v component:    3.232 m/s
      w component:    3.232 m/s


U-component (X) statistics from the interpolated hub point:

   Mean =  19.9462 m/s
   TI   =  12.6496 %


Normalizing Parameters for Binary Data (approximate statistics):

   UBar  =  19.9474 m/s
   TI(u) =  14.1578 %
   TI(v) =  16.2024 %
   TI(w) =  16.2024 %

   Height Offset =   0.0000 m
   Grid Base     =   1.0000 m

Creating a PERIODIC output file.


Processing complete.  115.03 CPU seconds used.
