
This summary file was generated by TurbSim (v2.00.07a-bjj, 14-Jun-2016) on 03-Nov-2023 at 03:21:07.


Runtime Options:

      3101  Random seed #1
    RANLUX  Type of random number generator
         F  Output binary HH turbulence parameters?
         F  Output formatted turbulence parameters?
         F  Output AeroDyn HH files?
         F  Output AeroDyn FF files?
         T  Output BLADED FF files?
         F  Output tower data?
         F  Output formatted FF files?
         F  Output coherent turbulence time step file?
         T  Clockwise rotation when looking downwind?
 0 -  NONE  IEC turbulence models scaled to exact specified standard deviation


Turbine/Model Specifications:

        36  Vertical grid-point matrix dimension
        36  Horizontal grid-point matrix dimension
     0.100  Time step [seconds]
   660.000  Analysis time [seconds]
   660.000  Usable output time [seconds]
   151.000  Hub height [m]
   300.000  Grid height [m]
   300.000  Grid width [m]
     0.000  Vertical flow angle [degrees]
     0.000  Horizontal flow angle [degrees]


Meteorological Boundary Conditions:

    IECVKM  IEC von Karman spectral model
         1  IEC standard: IEC 61400-1 Ed. 3: 2005
         A  IEC turbulence characteristic
       NTM  IEC Normal Turbulence Model
       N/A  IEC Extreme Turbulence Model (ETM) "c" parameter [m/s]
       PL   Wind profile type
   153.000  Reference height [m]
    15.000  Reference wind speed [m/s]
       N/A  Jet height [m]
     0.200  Power law exponent
     0.030  Surface roughness length [m]


Non-IEC Meteorological Boundary Conditions:

       N/A  Site latitude [degrees]
       N/A  Gradient Richardson number
       N/A  Friction or shear velocity [m/s]
       N/A  Mixing layer depth [m]
       N/A  Mean hub u'w' Reynolds stress
       N/A  Mean hub u'v' Reynolds stress
       N/A  Mean hub v'w' Reynolds stress


Spatial Coherence Models:

       IEC  u-component coherence model
      NONE  v-component coherence model
      NONE  w-component coherence model
(   12.000, 0.353E-03)  u-component coherence parameters
                   N/A  v-component coherence parameters
                   N/A  w-component coherence parameters
       N/A  Coherence exponent


You have requested that the following file(s) be generated:

   G:\2023\OpenWECDV1.0.0_x64\BaseLIne\wind\WindL_V_15_seed_3101.wnd (AeroDyn/BLADED full-field wnd file)


Turbulence Simulation Scaling Parameter Summary:

   Turbulence model used                            =  IEC von Karman
   Turbulence characteristic                        =  A
   IEC turbulence type                              =  Normal Turbulence Model
   IEC standard                                     =  IEC 61400-1 Ed. 3: 2005
   Mean wind speed at hub height                    =   14.961 m/s
   Expected value of turbulence intensity at 15 m/s =   16.000%
   Characteristic value of standard deviation       =    2.691 m/s
   Turbulence scale                                 =   42.000 m
   Isotropic integral scale                         =  147.000 m
   Characteristic value of hub turbulence intensity =   17.989%
   Gradient Richardson number                       =    0.000

   Wind profile type                                =  Power law
   Power law exponent                               =    0.200
   Mean shear across rotor disk                     =    0.039 (m/s)/m
   Assumed rotor diameter                           =  300.000 m
   Surface roughness length                         =    0.030 m

   Nyquist frequency of turbulent wind field        =    5.000 Hz

   Number of time steps in the FFT                  =     6600
   Number of time steps output                      =     6600
   Number of points simulated                       =     1297


Mean Flow Angles:

   Vertical   =   0.0 degrees
   Horizontal =   0.0 degrees

Mean Wind Speed Profile:

   Height    Wind Speed   Horizontal Angle  Vertical Angle  U-comp (X)   V-comp (Y)   W-comp (Z)
     (m)        (m/s)         (degrees)       (degrees)       (m/s)        (m/s)        (m/s)   
   ------    ----------   ----------------  --------------  ----------   ----------   ----------
    301.0       17.17            0.00            0.00         17.17         0.00         0.00
    292.4       17.07            0.00            0.00         17.07         0.00         0.00
    283.9       16.97            0.00            0.00         16.97         0.00         0.00
    275.3       16.87            0.00            0.00         16.87         0.00         0.00
    266.7       16.76            0.00            0.00         16.76         0.00         0.00
    258.1       16.65            0.00            0.00         16.65         0.00         0.00
    249.6       16.54            0.00            0.00         16.54         0.00         0.00
    241.0       16.43            0.00            0.00         16.43         0.00         0.00
    232.4       16.31            0.00            0.00         16.31         0.00         0.00
    223.9       16.19            0.00            0.00         16.19         0.00         0.00
    215.3       16.06            0.00            0.00         16.06         0.00         0.00
    206.7       15.93            0.00            0.00         15.93         0.00         0.00
    198.1       15.80            0.00            0.00         15.80         0.00         0.00
    189.6       15.66            0.00            0.00         15.66         0.00         0.00
    181.0       15.51            0.00            0.00         15.51         0.00         0.00
    172.4       15.36            0.00            0.00         15.36         0.00         0.00
    163.9       15.21            0.00            0.00         15.21         0.00         0.00
    155.3       15.04            0.00            0.00         15.04         0.00         0.00
    151.0       14.96            0.00            0.00         14.96         0.00         0.00
    146.7       14.87            0.00            0.00         14.87         0.00         0.00
    138.1       14.70            0.00            0.00         14.70         0.00         0.00
    129.6       14.51            0.00            0.00         14.51         0.00         0.00
    121.0       14.31            0.00            0.00         14.31         0.00         0.00
    112.4       14.10            0.00            0.00         14.10         0.00         0.00
    103.9       13.88            0.00            0.00         13.88         0.00         0.00
     95.3       13.64            0.00            0.00         13.64         0.00         0.00
     86.7       13.39            0.00            0.00         13.39         0.00         0.00
     78.1       13.11            0.00            0.00         13.11         0.00         0.00
     69.6       12.81            0.00            0.00         12.81         0.00         0.00
     61.0       12.48            0.00            0.00         12.48         0.00         0.00
     52.4       12.11            0.00            0.00         12.11         0.00         0.00
     43.9       11.68            0.00            0.00         11.68         0.00         0.00
     35.3       11.19            0.00            0.00         11.19         0.00         0.00
     26.7       10.58            0.00            0.00         10.58         0.00         0.00
     18.1        9.79            0.00            0.00          9.79         0.00         0.00
      9.6        8.62            0.00            0.00          8.62         0.00         0.00
      1.0        5.48            0.00            0.00          5.48         0.00         0.00


Harvested Random Seeds after Generation of the Random Numbers:

    119307688 K 1
            0 K 2


Hub-Height Simulated Turbulence Statistical Summary:

   Type of Wind        Min (m/s)   Mean (m/s)    Max (m/s)  Sigma (m/s)       TI (%)
   ----------------    ---------   ----------    ---------  -----------       ------
   Longitudinal (u)         7.37        14.96        23.90        2.483       16.595
   Lateral (v)             -8.15        -0.00         8.97        2.644       17.672
   Vertical (w)            -7.33        -0.00         8.19        2.644       17.672
   U component              7.37        14.96        23.90        2.483       16.595
   V component             -8.15        -0.00         8.97        2.644       17.672
   W component             -7.33        -0.00         8.19        2.644       17.672
   Horizontal (U&V)         7.61        15.20        23.96        2.459       16.182
   Total                    7.67        15.42        24.08        2.467       15.992

                       Min Reynolds     Mean Reynolds    Max Reynolds    Correlation
   Product             Stress (m/s)^2   Stress (m/s)^2   Stress (m/s)^2  Coefficient
   ----------------    --------------   --------------   --------------  -----------
   u'w'                    -37.323             0.611            38.916         0.093
   u'v'                    -37.220             0.526            32.895         0.080
   v'w'                    -61.304            -0.766            28.690        -0.110


   Friction Velocity (Ustar)  =      0.782 m/s
   Maximum Instantaneous TKE  =     63.115 (m/s)^2
   Maximum Instantaneous CTKE =     32.410 (m/s)^2


Grid Point Variance Summary:

   Y-coord -150.00 -141.43 -132.86 -124.29 -115.71 -107.14  -98.57  -90.00  -81.43  -72.86  -64.29  -55.71  -47.14  -38.57  -30.00  -21.43  -12.86   -4.29    4.29   12.86   21.43   30.00   38.57   47.14   55.71   64.29   72.86   81.43   90.00   98.57  107.14  115.71  124.29  132.86  141.43  150.00

   Height   Standard deviation at grid points for the u component:
   301.00    2.048   2.140   2.119   2.164   2.183   2.104   2.159   2.180   2.281   2.258   2.272   2.279   2.269   2.359   2.420   2.429   2.350   2.273   2.379   2.371   2.393   2.390   2.310   2.106   2.206   2.378   2.336   2.280   2.370   2.388   2.390   2.416   2.548   2.567   2.587   2.413
   292.43    2.135   2.325   2.280   2.187   2.265   2.199   2.222   2.221   2.134   2.038   2.169   2.209   2.309   2.338   2.448   2.436   2.292   2.210   2.301   2.427   2.406   2.469   2.149   2.064   2.242   2.320   2.289   2.328   2.436   2.448   2.383   2.430   2.561   2.708   2.508   2.362
   283.86    2.217   2.467   2.274   2.253   2.332   2.294   2.208   2.236   2.117   2.147   2.102   2.155   2.210   2.339   2.459   2.379   2.399   2.208   2.241   2.444   2.495   2.270   2.064   2.030   2.170   2.456   2.552   2.553   2.622   2.594   2.500   2.399   2.441   2.564   2.444   2.400
   275.29    2.375   2.451   2.453   2.301   2.402   2.413   2.336   2.313   2.156   2.198   2.118   2.182   2.250   2.281   2.359   2.318   2.309   2.339   2.329   2.405   2.443   2.423   2.180   2.226   2.333   2.597   2.773   2.678   2.742   2.696   2.585   2.497   2.458   2.590   2.510   2.503
   266.71    2.396   2.517   2.457   2.368   2.451   2.587   2.444   2.267   2.157   2.085   2.060   2.102   2.164   2.215   2.229   2.311   2.395   2.343   2.281   2.301   2.469   2.428   2.227   2.413   2.387   2.683   2.785   2.576   2.598   2.656   2.665   2.534   2.614   2.703   2.702   2.783
   258.14    2.447   2.424   2.480   2.526   2.395   2.410   2.401   2.252   2.300   2.254   2.155   2.109   2.030   2.116   2.190   2.327   2.196   2.255   2.253   2.210   2.340   2.297   2.151   2.365   2.502   2.524   2.589   2.602   2.670   2.718   2.718   2.703   2.892   2.815   2.871   2.951
   249.57    2.452   2.398   2.512   2.410   2.314   2.541   2.309   2.242   2.306   2.121   2.288   2.073   2.037   2.184   2.250   2.354   2.394   2.274   2.262   2.391   2.318   2.374   2.418   2.465   2.454   2.553   2.552   2.587   2.727   2.701   2.716   2.755   2.902   2.983   2.967   2.834
   241.00    2.322   2.349   2.327   2.283   2.303   2.464   2.480   2.538   2.452   2.261   2.158   2.140   2.088   2.176   2.134   2.275   2.356   2.302   2.369   2.282   2.499   2.543   2.457   2.488   2.464   2.628   2.655   2.718   2.952   2.803   2.787   2.934   2.875   2.799   2.822   2.761
   232.43    2.226   2.286   2.357   2.518   2.339   2.383   2.522   2.454   2.415   2.304   2.246   2.265   2.201   2.067   1.966   2.229   2.345   2.404   2.471   2.492   2.524   2.568   2.656   2.688   2.720   2.721   2.837   2.721   2.765   2.838   2.691   2.729   2.744   2.845   2.670   2.693
   223.86    2.422   2.352   2.326   2.452   2.360   2.566   2.431   2.349   2.336   2.263   2.169   2.085   2.114   2.051   2.348   2.351   2.528   2.355   2.520   2.734   2.549   2.558   2.648   2.795   2.723   2.754   2.840   2.682   2.766   2.757   2.603   2.724   2.740   2.843   2.731   2.620
   215.29    2.292   2.364   2.425   2.358   2.361   2.437   2.526   2.295   2.223   2.225   2.244   2.087   2.191   2.175   2.249   2.285   2.580   2.605   2.631   2.687   2.650   2.645   2.649   2.557   2.644   2.742   2.690   2.721   2.961   2.735   2.776   2.744   2.766   2.797   2.851   2.737
   206.71    2.355   2.492   2.300   2.351   2.409   2.439   2.366   2.463   2.401   2.237   2.200   2.197   2.069   2.224   2.431   2.535   2.579   2.705   2.787   2.913   2.767   2.708   2.694   2.606   2.572   2.672   2.665   2.880   2.869   2.874   2.663   2.878   2.804   2.923   2.930   2.735
   198.14    2.462   2.352   2.377   2.331   2.374   2.285   2.314   2.267   2.285   2.233   2.217   2.327   2.323   2.388   2.468   2.591   2.776   2.884   2.820   2.858   2.804   2.795   2.764   2.525   2.646   2.606   2.675   2.813   2.782   2.771   2.785   2.816   3.009   2.936   2.861   2.862
   189.57    2.416   2.364   2.439   2.457   2.356   2.306   2.201   2.220   2.259   2.403   2.464   2.409   2.408   2.493   2.448   2.531   2.943   3.008   2.935   2.834   2.767   2.801   2.644   2.595   2.585   2.659   2.596   2.574   2.760   2.710   2.774   2.731   2.791   2.896   2.936   2.921
   181.00    2.624   2.428   2.493   2.529   2.329   2.236   2.274   2.405   2.314   2.402   2.480   2.520   2.437   2.488   2.475   2.611   2.730   2.818   2.895   2.921   2.702   2.821   2.797   2.638   2.556   2.581   2.570   2.588   2.678   2.698   2.577   2.653   2.689   2.850   2.974   2.865
   172.43    2.469   2.447   2.530   2.408   2.274   2.335   2.265   2.363   2.365   2.376   2.420   2.345   2.352   2.542   2.625   2.687   2.609   2.522   2.721   2.833   2.836   2.931   2.853   2.774   2.720   2.698   2.641   2.561   2.581   2.538   2.387   2.415   2.564   2.901   2.944   2.873
   163.86    2.497   2.531   2.454   2.354   2.318   2.343   2.419   2.377   2.291   2.336   2.411   2.521   2.532   2.432   2.589   2.597   2.446   2.404   2.592   2.809   2.846   2.817   2.909   2.665   2.679   2.732   2.706   2.466   2.520   2.474   2.330   2.456   2.700   2.789   2.757   2.779
   155.29    2.481   2.427   2.422   2.427   2.411   2.303   2.329   2.191   2.270   2.206   2.428   2.546   2.543   2.588   2.572   2.474   2.498   2.371   2.508   2.659   2.779   2.838   2.783   2.753   2.643   2.848   2.798   2.418   2.506   2.288   2.436   2.555   2.555   2.782   2.591   2.643
   146.71    2.449   2.461   2.571   2.486   2.381   2.190   2.188   2.209   2.252   2.414   2.510   2.469   2.474   2.576   2.598   2.406   2.425   2.411   2.610   2.776   2.776   2.715   2.651   2.728   2.770   2.659   2.604   2.587   2.551   2.347   2.452   2.636   2.590   2.713   2.360   2.433
   138.14    2.343   2.249   2.416   2.449   2.333   2.205   2.310   2.036   2.138   2.343   2.526   2.416   2.501   2.583   2.603   2.576   2.449   2.513   2.703   2.681   2.741   2.736   2.802   2.741   2.610   2.527   2.625   2.672   2.583   2.513   2.428   2.438   2.455   2.583   2.491   2.466
   129.57    2.161   2.267   2.418   2.487   2.294   2.390   2.415   2.414   2.362   2.461   2.599   2.504   2.482   2.573   2.552   2.586   2.457   2.591   2.715   2.730   2.797   2.788   2.765   2.766   2.685   2.506   2.677   2.579   2.600   2.633   2.465   2.461   2.459   2.408   2.508   2.413
   121.00    2.313   2.167   2.468   2.527   2.594   2.412   2.577   2.499   2.435   2.432   2.601   2.727   2.621   2.668   2.666   2.525   2.553   2.718   2.774   2.757   2.633   2.703   2.599   2.661   2.731   2.613   2.613   2.680   2.630   2.662   2.628   2.607   2.598   2.463   2.429   2.439
   112.43    2.201   2.302   2.403   2.445   2.519   2.480   2.529   2.538   2.469   2.368   2.542   2.603   2.582   2.511   2.533   2.643   2.611   2.590   2.716   2.738   2.809   2.692   2.583   2.481   2.620   2.557   2.595   2.429   2.645   2.568   2.523   2.511   2.414   2.507   2.493   2.509
   103.86    2.355   2.281   2.554   2.494   2.407   2.510   2.545   2.465   2.508   2.443   2.612   2.533   2.493   2.697   2.555   2.618   2.542   2.575   2.757   2.699   2.915   2.579   2.470   2.668   2.644   2.498   2.426   2.383   2.597   2.495   2.474   2.550   2.536   2.281   2.323   2.403
    95.29    2.314   2.401   2.623   2.597   2.542   2.687   2.594   2.445   2.242   2.485   2.599   2.497   2.547   2.523   2.466   2.424   2.490   2.633   2.696   2.716   2.635   2.472   2.497   2.557   2.624   2.662   2.603   2.524   2.459   2.389   2.399   2.415   2.321   2.258   2.253   2.477
    86.71    2.454   2.487   2.581   2.669   2.716   2.884   2.778   2.507   2.427   2.455   2.458   2.377   2.488   2.447   2.556   2.569   2.605   2.706   2.586   2.469   2.523   2.513   2.392   2.409   2.480   2.517   2.418   2.387   2.389   2.486   2.523   2.361   2.359   2.271   2.374   2.531
    78.14    2.472   2.561   2.470   2.654   2.697   2.825   2.861   2.718   2.646   2.602   2.616   2.735   2.565   2.625   2.617   2.583   2.596   2.513   2.602   2.486   2.392   2.466   2.560   2.425   2.590   2.523   2.571   2.463   2.466   2.488   2.562   2.502   2.469   2.203   2.350   2.442
    69.57    2.566   2.720   2.581   2.735   2.780   2.878   2.887   2.767   2.699   2.864   2.683   2.794   2.786   2.735   2.739   2.694   2.599   2.672   2.630   2.471   2.466   2.429   2.328   2.401   2.392   2.367   2.381   2.354   2.458   2.553   2.555   2.584   2.490   2.339   2.363   2.433
    61.00    2.650   2.633   2.661   2.785   2.814   2.677   2.680   2.716   2.753   2.756   2.640   2.777   2.788   2.716   2.689   2.685   2.677   2.709   2.622   2.534   2.461   2.393   2.260   2.068   2.143   2.275   2.320   2.381   2.531   2.611   2.587   2.551   2.526   2.411   2.528   2.620
    52.43    2.765   2.680   2.718   2.714   2.810   2.700   2.755   2.766   2.614   2.675   2.694   2.770   2.672   2.647   2.783   2.811   2.778   2.714   2.553   2.493   2.385   2.286   2.167   2.147   2.083   2.205   2.172   2.324   2.459   2.531   2.562   2.468   2.514   2.393   2.486   2.518
    43.86    2.714   2.596   2.607   2.568   2.644   2.785   2.638   2.563   2.509   2.615   2.771   2.571   2.597   2.589   2.718   2.713   2.694   2.496   2.519   2.501   2.349   2.431   2.407   2.267   2.096   2.245   2.250   2.324   2.414   2.513   2.318   2.563   2.338   2.455   2.464   2.398
    35.29    2.719   2.697   2.659   2.296   2.493   2.565   2.612   2.589   2.550   2.526   2.686   2.716   2.683   2.519   2.582   2.709   2.761   2.531   2.439   2.568   2.375   2.418   2.390   2.436   2.345   2.300   2.477   2.618   2.596   2.622   2.509   2.539   2.432   2.407   2.469   2.552
    26.71    2.822   2.800   2.639   2.342   2.470   2.523   2.603   2.641   2.687   2.733   2.596   2.680   2.666   2.533   2.703   2.756   2.694   2.622   2.678   2.598   2.573   2.531   2.488   2.621   2.535   2.424   2.543   2.588   2.615   2.755   2.782   2.682   2.699   2.515   2.524   2.553
    18.14    2.704   2.587   2.590   2.356   2.360   2.526   2.640   2.748   2.807   2.718   2.611   2.614   2.623   2.585   2.638   2.610   2.739   2.667   2.566   2.539   2.520   2.612   2.414   2.535   2.460   2.530   2.550   2.635   2.588   2.805   2.927   2.879   2.648   2.657   2.608   2.563
     9.57    2.818   2.682   2.652   2.387   2.383   2.353   2.566   2.721   2.774   2.737   2.600   2.684   2.646   2.555   2.661   2.675   2.553   2.616   2.537   2.531   2.473   2.558   2.524   2.487   2.434   2.471   2.522   2.634   2.529   2.701   2.740   2.745   2.583   2.646   2.741   2.716
     1.00    2.631   2.542   2.591   2.435   2.441   2.335   2.530   2.618   2.833   2.693   2.610   2.662   2.774   2.752   2.722   2.732   2.606   2.508   2.475   2.521   2.496   2.459   2.335   2.547   2.384   2.358   2.481   2.663   2.598   2.592   2.676   2.652   2.624   2.725   2.581   2.618

   Height   Standard deviation at grid points for the v component:
   301.00    2.644   2.644   2.644   2.644   2.644   2.644   2.644   2.644   2.644   2.644   2.644   2.644   2.644   2.644   2.644   2.644   2.644   2.644   2.644   2.644   2.644   2.644   2.644   2.644   2.644   2.644   2.644   2.644   2.644   2.644   2.644   2.644   2.644   2.644   2.644   2.644
   292.43    2.644   2.644   2.644   2.644   2.644   2.644   2.644   2.644   2.644   2.644   2.644   2.644   2.644   2.644   2.644   2.644   2.644   2.644   2.644   2.644   2.644   2.644   2.644   2.644   2.644   2.644   2.644   2.644   2.644   2.644   2.644   2.644   2.644   2.644   2.644   2.644
   283.86    2.644   2.644   2.644   2.644   2.644   2.644   2.644   2.644   2.644   2.644   2.644   2.644   2.644   2.644   2.644   2.644   2.644   2.644   2.644   2.644   2.644   2.644   2.644   2.644   2.644   2.644   2.644   2.644   2.644   2.644   2.644   2.644   2.644   2.644   2.644   2.644
   275.29    2.644   2.644   2.644   2.644   2.644   2.644   2.644   2.644   2.644   2.644   2.644   2.644   2.644   2.644   2.644   2.644   2.644   2.644   2.644   2.644   2.644   2.644   2.644   2.644   2.644   2.644   2.644   2.644   2.644   2.644   2.644   2.644   2.644   2.644   2.644   2.644
   266.71    2.644   2.644   2.644   2.644   2.644   2.644   2.644   2.644   2.644   2.644   2.644   2.644   2.644   2.644   2.644   2.644   2.644   2.644   2.644   2.644   2.644   2.644   2.644   2.644   2.644   2.644   2.644   2.644   2.644   2.644   2.644   2.644   2.644   2.644   2.644   2.644
   258.14    2.644   2.644   2.644   2.644   2.644   2.644   2.644   2.644   2.644   2.644   2.644   2.644   2.644   2.644   2.644   2.644   2.644   2.644   2.644   2.644   2.644   2.644   2.644   2.644   2.644   2.644   2.644   2.644   2.644   2.644   2.644   2.644   2.644   2.644   2.644   2.644
   249.57    2.644   2.644   2.644   2.644   2.644   2.644   2.644   2.644   2.644   2.644   2.644   2.644   2.644   2.644   2.644   2.644   2.644   2.644   2.644   2.644   2.644   2.644   2.644   2.644   2.644   2.644   2.644   2.644   2.644   2.644   2.644   2.644   2.644   2.644   2.644   2.644
   241.00    2.644   2.644   2.644   2.644   2.644   2.644   2.644   2.644   2.644   2.644   2.644   2.644   2.644   2.644   2.644   2.644   2.644   2.644   2.644   2.644   2.644   2.644   2.644   2.644   2.644   2.644   2.644   2.644   2.644   2.644   2.644   2.644   2.644   2.644   2.644   2.644
   232.43    2.644   2.644   2.644   2.644   2.644   2.644   2.644   2.644   2.644   2.644   2.644   2.644   2.644   2.644   2.644   2.644   2.644   2.644   2.644   2.644   2.644   2.644   2.644   2.644   2.644   2.644   2.644   2.644   2.644   2.644   2.644   2.644   2.644   2.644   2.644   2.644
   223.86    2.644   2.644   2.644   2.644   2.644   2.644   2.644   2.644   2.644   2.644   2.644   2.644   2.644   2.644   2.644   2.644   2.644   2.644   2.644   2.644   2.644   2.644   2.644   2.644   2.644   2.644   2.644   2.644   2.644   2.644   2.644   2.644   2.644   2.644   2.644   2.644
   215.29    2.644   2.644   2.644   2.644   2.644   2.644   2.644   2.644   2.644   2.644   2.644   2.644   2.644   2.644   2.644   2.644   2.644   2.644   2.644   2.644   2.644   2.644   2.644   2.644   2.644   2.644   2.644   2.644   2.644   2.644   2.644   2.644   2.644   2.644   2.644   2.644
   206.71    2.644   2.644   2.644   2.644   2.644   2.644   2.644   2.644   2.644   2.644   2.644   2.644   2.644   2.644   2.644   2.644   2.644   2.644   2.644   2.644   2.644   2.644   2.644   2.644   2.644   2.644   2.644   2.644   2.644   2.644   2.644   2.644   2.644   2.644   2.644   2.644
   198.14    2.644   2.644   2.644   2.644   2.644   2.644   2.644   2.644   2.644   2.644   2.644   2.644   2.644   2.644   2.644   2.644   2.644   2.644   2.644   2.644   2.644   2.644   2.644   2.644   2.644   2.644   2.644   2.644   2.644   2.644   2.644   2.644   2.644   2.644   2.644   2.644
   189.57    2.644   2.644   2.644   2.644   2.644   2.644   2.644   2.644   2.644   2.644   2.644   2.644   2.644   2.644   2.644   2.644   2.644   2.644   2.644   2.644   2.644   2.644   2.644   2.644   2.644   2.644   2.644   2.644   2.644   2.644   2.644   2.644   2.644   2.644   2.644   2.644
   181.00    2.644   2.644   2.644   2.644   2.644   2.644   2.644   2.644   2.644   2.644   2.644   2.644   2.644   2.644   2.644   2.644   2.644   2.644   2.644   2.644   2.644   2.644   2.644   2.644   2.644   2.644   2.644   2.644   2.644   2.644   2.644   2.644   2.644   2.644   2.644   2.644
   172.43    2.644   2.644   2.644   2.644   2.644   2.644   2.644   2.644   2.644   2.644   2.644   2.644   2.644   2.644   2.644   2.644   2.644   2.644   2.644   2.644   2.644   2.644   2.644   2.644   2.644   2.644   2.644   2.644   2.644   2.644   2.644   2.644   2.644   2.644   2.644   2.644
   163.86    2.644   2.644   2.644   2.644   2.644   2.644   2.644   2.644   2.644   2.644   2.644   2.644   2.644   2.644   2.644   2.644   2.644   2.644   2.644   2.644   2.644   2.644   2.644   2.644   2.644   2.644   2.644   2.644   2.644   2.644   2.644   2.644   2.644   2.644   2.644   2.644
   155.29    2.644   2.644   2.644   2.644   2.644   2.644   2.644   2.644   2.644   2.644   2.644   2.644   2.644   2.644   2.644   2.644   2.644   2.644   2.644   2.644   2.644   2.644   2.644   2.644   2.644   2.644   2.644   2.644   2.644   2.644   2.644   2.644   2.644   2.644   2.644   2.644
   146.71    2.644   2.644   2.644   2.644   2.644   2.644   2.644   2.644   2.644   2.644   2.644   2.644   2.644   2.644   2.644   2.644   2.644   2.644   2.644   2.644   2.644   2.644   2.644   2.644   2.644   2.644   2.644   2.644   2.644   2.644   2.644   2.644   2.644   2.644   2.644   2.644
   138.14    2.644   2.644   2.644   2.644   2.644   2.644   2.644   2.644   2.644   2.644   2.644   2.644   2.644   2.644   2.644   2.644   2.644   2.644   2.644   2.644   2.644   2.644   2.644   2.644   2.644   2.644   2.644   2.644   2.644   2.644   2.644   2.644   2.644   2.644   2.644   2.644
   129.57    2.644   2.644   2.644   2.644   2.644   2.644   2.644   2.644   2.644   2.644   2.644   2.644   2.644   2.644   2.644   2.644   2.644   2.644   2.644   2.644   2.644   2.644   2.644   2.644   2.644   2.644   2.644   2.644   2.644   2.644   2.644   2.644   2.644   2.644   2.644   2.644
   121.00    2.644   2.644   2.644   2.644   2.644   2.644   2.644   2.644   2.644   2.644   2.644   2.644   2.644   2.644   2.644   2.644   2.644   2.644   2.644   2.644   2.644   2.644   2.644   2.644   2.644   2.644   2.644   2.644   2.644   2.644   2.644   2.644   2.644   2.644   2.644   2.644
   112.43    2.644   2.644   2.644   2.644   2.644   2.644   2.644   2.644   2.644   2.644   2.644   2.644   2.644   2.644   2.644   2.644   2.644   2.644   2.644   2.644   2.644   2.644   2.644   2.644   2.644   2.644   2.644   2.644   2.644   2.644   2.644   2.644   2.644   2.644   2.644   2.644
   103.86    2.644   2.644   2.644   2.644   2.644   2.644   2.644   2.644   2.644   2.644   2.644   2.644   2.644   2.644   2.644   2.644   2.644   2.644   2.644   2.644   2.644   2.644   2.644   2.644   2.644   2.644   2.644   2.644   2.644   2.644   2.644   2.644   2.644   2.644   2.644   2.644
    95.29    2.644   2.644   2.644   2.644   2.644   2.644   2.644   2.644   2.644   2.644   2.644   2.644   2.644   2.644   2.644   2.644   2.644   2.644   2.644   2.644   2.644   2.644   2.644   2.644   2.644   2.644   2.644   2.644   2.644   2.644   2.644   2.644   2.644   2.644   2.644   2.644
    86.71    2.644   2.644   2.644   2.644   2.644   2.644   2.644   2.644   2.644   2.644   2.644   2.644   2.644   2.644   2.644   2.644   2.644   2.644   2.644   2.644   2.644   2.644   2.644   2.644   2.644   2.644   2.644   2.644   2.644   2.644   2.644   2.644   2.644   2.644   2.644   2.644
    78.14    2.644   2.644   2.644   2.644   2.644   2.644   2.644   2.644   2.644   2.644   2.644   2.644   2.644   2.644   2.644   2.644   2.644   2.644   2.644   2.644   2.644   2.644   2.644   2.644   2.644   2.644   2.644   2.644   2.644   2.644   2.644   2.644   2.644   2.644   2.644   2.644
    69.57    2.644   2.644   2.644   2.644   2.644   2.644   2.644   2.644   2.644   2.644   2.644   2.644   2.644   2.644   2.644   2.644   2.644   2.644   2.644   2.644   2.644   2.644   2.644   2.644   2.644   2.644   2.644   2.644   2.644   2.644   2.644   2.644   2.644   2.644   2.644   2.644
    61.00    2.644   2.644   2.644   2.644   2.644   2.644   2.644   2.644   2.644   2.644   2.644   2.644   2.644   2.644   2.644   2.644   2.644   2.644   2.644   2.644   2.644   2.644   2.644   2.644   2.644   2.644   2.644   2.644   2.644   2.644   2.644   2.644   2.644   2.644   2.644   2.644
    52.43    2.644   2.644   2.644   2.644   2.644   2.644   2.644   2.644   2.644   2.644   2.644   2.644   2.644   2.644   2.644   2.644   2.644   2.644   2.644   2.644   2.644   2.644   2.644   2.644   2.644   2.644   2.644   2.644   2.644   2.644   2.644   2.644   2.644   2.644   2.644   2.644
    43.86    2.644   2.644   2.644   2.644   2.644   2.644   2.644   2.644   2.644   2.644   2.644   2.644   2.644   2.644   2.644   2.644   2.644   2.644   2.644   2.644   2.644   2.644   2.644   2.644   2.644   2.644   2.644   2.644   2.644   2.644   2.644   2.644   2.644   2.644   2.644   2.644
    35.29    2.644   2.644   2.644   2.644   2.644   2.644   2.644   2.644   2.644   2.644   2.644   2.644   2.644   2.644   2.644   2.644   2.644   2.644   2.644   2.644   2.644   2.644   2.644   2.644   2.644   2.644   2.644   2.644   2.644   2.644   2.644   2.644   2.644   2.644   2.644   2.644
    26.71    2.644   2.644   2.644   2.644   2.644   2.644   2.644   2.644   2.644   2.644   2.644   2.644   2.644   2.644   2.644   2.644   2.644   2.644   2.644   2.644   2.644   2.644   2.644   2.644   2.644   2.644   2.644   2.644   2.644   2.644   2.644   2.644   2.644   2.644   2.644   2.644
    18.14    2.644   2.644   2.644   2.644   2.644   2.644   2.644   2.644   2.644   2.644   2.644   2.644   2.644   2.644   2.644   2.644   2.644   2.644   2.644   2.644   2.644   2.644   2.644   2.644   2.644   2.644   2.644   2.644   2.644   2.644   2.644   2.644   2.644   2.644   2.644   2.644
     9.57    2.644   2.644   2.644   2.644   2.644   2.644   2.644   2.644   2.644   2.644   2.644   2.644   2.644   2.644   2.644   2.644   2.644   2.644   2.644   2.644   2.644   2.644   2.644   2.644   2.644   2.644   2.644   2.644   2.644   2.644   2.644   2.644   2.644   2.644   2.644   2.644
     1.00    2.644   2.644   2.644   2.644   2.644   2.644   2.644   2.644   2.644   2.644   2.644   2.644   2.644   2.644   2.644   2.644   2.644   2.644   2.644   2.644   2.644   2.644   2.644   2.644   2.644   2.644   2.644   2.644   2.644   2.644   2.644   2.644   2.644   2.644   2.644   2.644

   Height   Standard deviation at grid points for the w component:
   301.00    2.644   2.644   2.644   2.644   2.644   2.644   2.644   2.644   2.644   2.644   2.644   2.644   2.644   2.644   2.644   2.644   2.644   2.644   2.644   2.644   2.644   2.644   2.644   2.644   2.644   2.644   2.644   2.644   2.644   2.644   2.644   2.644   2.644   2.644   2.644   2.644
   292.43    2.644   2.644   2.644   2.644   2.644   2.644   2.644   2.644   2.644   2.644   2.644   2.644   2.644   2.644   2.644   2.644   2.644   2.644   2.644   2.644   2.644   2.644   2.644   2.644   2.644   2.644   2.644   2.644   2.644   2.644   2.644   2.644   2.644   2.644   2.644   2.644
   283.86    2.644   2.644   2.644   2.644   2.644   2.644   2.644   2.644   2.644   2.644   2.644   2.644   2.644   2.644   2.644   2.644   2.644   2.644   2.644   2.644   2.644   2.644   2.644   2.644   2.644   2.644   2.644   2.644   2.644   2.644   2.644   2.644   2.644   2.644   2.644   2.644
   275.29    2.644   2.644   2.644   2.644   2.644   2.644   2.644   2.644   2.644   2.644   2.644   2.644   2.644   2.644   2.644   2.644   2.644   2.644   2.644   2.644   2.644   2.644   2.644   2.644   2.644   2.644   2.644   2.644   2.644   2.644   2.644   2.644   2.644   2.644   2.644   2.644
   266.71    2.644   2.644   2.644   2.644   2.644   2.644   2.644   2.644   2.644   2.644   2.644   2.644   2.644   2.644   2.644   2.644   2.644   2.644   2.644   2.644   2.644   2.644   2.644   2.644   2.644   2.644   2.644   2.644   2.644   2.644   2.644   2.644   2.644   2.644   2.644   2.644
   258.14    2.644   2.644   2.644   2.644   2.644   2.644   2.644   2.644   2.644   2.644   2.644   2.644   2.644   2.644   2.644   2.644   2.644   2.644   2.644   2.644   2.644   2.644   2.644   2.644   2.644   2.644   2.644   2.644   2.644   2.644   2.644   2.644   2.644   2.644   2.644   2.644
   249.57    2.644   2.644   2.644   2.644   2.644   2.644   2.644   2.644   2.644   2.644   2.644   2.644   2.644   2.644   2.644   2.644   2.644   2.644   2.644   2.644   2.644   2.644   2.644   2.644   2.644   2.644   2.644   2.644   2.644   2.644   2.644   2.644   2.644   2.644   2.644   2.644
   241.00    2.644   2.644   2.644   2.644   2.644   2.644   2.644   2.644   2.644   2.644   2.644   2.644   2.644   2.644   2.644   2.644   2.644   2.644   2.644   2.644   2.644   2.644   2.644   2.644   2.644   2.644   2.644   2.644   2.644   2.644   2.644   2.644   2.644   2.644   2.644   2.644
   232.43    2.644   2.644   2.644   2.644   2.644   2.644   2.644   2.644   2.644   2.644   2.644   2.644   2.644   2.644   2.644   2.644   2.644   2.644   2.644   2.644   2.644   2.644   2.644   2.644   2.644   2.644   2.644   2.644   2.644   2.644   2.644   2.644   2.644   2.644   2.644   2.644
   223.86    2.644   2.644   2.644   2.644   2.644   2.644   2.644   2.644   2.644   2.644   2.644   2.644   2.644   2.644   2.644   2.644   2.644   2.644   2.644   2.644   2.644   2.644   2.644   2.644   2.644   2.644   2.644   2.644   2.644   2.644   2.644   2.644   2.644   2.644   2.644   2.644
   215.29    2.644   2.644   2.644   2.644   2.644   2.644   2.644   2.644   2.644   2.644   2.644   2.644   2.644   2.644   2.644   2.644   2.644   2.644   2.644   2.644   2.644   2.644   2.644   2.644   2.644   2.644   2.644   2.644   2.644   2.644   2.644   2.644   2.644   2.644   2.644   2.644
   206.71    2.644   2.644   2.644   2.644   2.644   2.644   2.644   2.644   2.644   2.644   2.644   2.644   2.644   2.644   2.644   2.644   2.644   2.644   2.644   2.644   2.644   2.644   2.644   2.644   2.644   2.644   2.644   2.644   2.644   2.644   2.644   2.644   2.644   2.644   2.644   2.644
   198.14    2.644   2.644   2.644   2.644   2.644   2.644   2.644   2.644   2.644   2.644   2.644   2.644   2.644   2.644   2.644   2.644   2.644   2.644   2.644   2.644   2.644   2.644   2.644   2.644   2.644   2.644   2.644   2.644   2.644   2.644   2.644   2.644   2.644   2.644   2.644   2.644
   189.57    2.644   2.644   2.644   2.644   2.644   2.644   2.644   2.644   2.644   2.644   2.644   2.644   2.644   2.644   2.644   2.644   2.644   2.644   2.644   2.644   2.644   2.644   2.644   2.644   2.644   2.644   2.644   2.644   2.644   2.644   2.644   2.644   2.644   2.644   2.644   2.644
   181.00    2.644   2.644   2.644   2.644   2.644   2.644   2.644   2.644   2.644   2.644   2.644   2.644   2.644   2.644   2.644   2.644   2.644   2.644   2.644   2.644   2.644   2.644   2.644   2.644   2.644   2.644   2.644   2.644   2.644   2.644   2.644   2.644   2.644   2.644   2.644   2.644
   172.43    2.644   2.644   2.644   2.644   2.644   2.644   2.644   2.644   2.644   2.644   2.644   2.644   2.644   2.644   2.644   2.644   2.644   2.644   2.644   2.644   2.644   2.644   2.644   2.644   2.644   2.644   2.644   2.644   2.644   2.644   2.644   2.644   2.644   2.644   2.644   2.644
   163.86    2.644   2.644   2.644   2.644   2.644   2.644   2.644   2.644   2.644   2.644   2.644   2.644   2.644   2.644   2.644   2.644   2.644   2.644   2.644   2.644   2.644   2.644   2.644   2.644   2.644   2.644   2.644   2.644   2.644   2.644   2.644   2.644   2.644   2.644   2.644   2.644
   155.29    2.644   2.644   2.644   2.644   2.644   2.644   2.644   2.644   2.644   2.644   2.644   2.644   2.644   2.644   2.644   2.644   2.644   2.644   2.644   2.644   2.644   2.644   2.644   2.644   2.644   2.644   2.644   2.644   2.644   2.644   2.644   2.644   2.644   2.644   2.644   2.644
   146.71    2.644   2.644   2.644   2.644   2.644   2.644   2.644   2.644   2.644   2.644   2.644   2.644   2.644   2.644   2.644   2.644   2.644   2.644   2.644   2.644   2.644   2.644   2.644   2.644   2.644   2.644   2.644   2.644   2.644   2.644   2.644   2.644   2.644   2.644   2.644   2.644
   138.14    2.644   2.644   2.644   2.644   2.644   2.644   2.644   2.644   2.644   2.644   2.644   2.644   2.644   2.644   2.644   2.644   2.644   2.644   2.644   2.644   2.644   2.644   2.644   2.644   2.644   2.644   2.644   2.644   2.644   2.644   2.644   2.644   2.644   2.644   2.644   2.644
   129.57    2.644   2.644   2.644   2.644   2.644   2.644   2.644   2.644   2.644   2.644   2.644   2.644   2.644   2.644   2.644   2.644   2.644   2.644   2.644   2.644   2.644   2.644   2.644   2.644   2.644   2.644   2.644   2.644   2.644   2.644   2.644   2.644   2.644   2.644   2.644   2.644
   121.00    2.644   2.644   2.644   2.644   2.644   2.644   2.644   2.644   2.644   2.644   2.644   2.644   2.644   2.644   2.644   2.644   2.644   2.644   2.644   2.644   2.644   2.644   2.644   2.644   2.644   2.644   2.644   2.644   2.644   2.644   2.644   2.644   2.644   2.644   2.644   2.644
   112.43    2.644   2.644   2.644   2.644   2.644   2.644   2.644   2.644   2.644   2.644   2.644   2.644   2.644   2.644   2.644   2.644   2.644   2.644   2.644   2.644   2.644   2.644   2.644   2.644   2.644   2.644   2.644   2.644   2.644   2.644   2.644   2.644   2.644   2.644   2.644   2.644
   103.86    2.644   2.644   2.644   2.644   2.644   2.644   2.644   2.644   2.644   2.644   2.644   2.644   2.644   2.644   2.644   2.644   2.644   2.644   2.644   2.644   2.644   2.644   2.644   2.644   2.644   2.644   2.644   2.644   2.644   2.644   2.644   2.644   2.644   2.644   2.644   2.644
    95.29    2.644   2.644   2.644   2.644   2.644   2.644   2.644   2.644   2.644   2.644   2.644   2.644   2.644   2.644   2.644   2.644   2.644   2.644   2.644   2.644   2.644   2.644   2.644   2.644   2.644   2.644   2.644   2.644   2.644   2.644   2.644   2.644   2.644   2.644   2.644   2.644
    86.71    2.644   2.644   2.644   2.644   2.644   2.644   2.644   2.644   2.644   2.644   2.644   2.644   2.644   2.644   2.644   2.644   2.644   2.644   2.644   2.644   2.644   2.644   2.644   2.644   2.644   2.644   2.644   2.644   2.644   2.644   2.644   2.644   2.644   2.644   2.644   2.644
    78.14    2.644   2.644   2.644   2.644   2.644   2.644   2.644   2.644   2.644   2.644   2.644   2.644   2.644   2.644   2.644   2.644   2.644   2.644   2.644   2.644   2.644   2.644   2.644   2.644   2.644   2.644   2.644   2.644   2.644   2.644   2.644   2.644   2.644   2.644   2.644   2.644
    69.57    2.644   2.644   2.644   2.644   2.644   2.644   2.644   2.644   2.644   2.644   2.644   2.644   2.644   2.644   2.644   2.644   2.644   2.644   2.644   2.644   2.644   2.644   2.644   2.644   2.644   2.644   2.644   2.644   2.644   2.644   2.644   2.644   2.644   2.644   2.644   2.644
    61.00    2.644   2.644   2.644   2.644   2.644   2.644   2.644   2.644   2.644   2.644   2.644   2.644   2.644   2.644   2.644   2.644   2.644   2.644   2.644   2.644   2.644   2.644   2.644   2.644   2.644   2.644   2.644   2.644   2.644   2.644   2.644   2.644   2.644   2.644   2.644   2.644
    52.43    2.644   2.644   2.644   2.644   2.644   2.644   2.644   2.644   2.644   2.644   2.644   2.644   2.644   2.644   2.644   2.644   2.644   2.644   2.644   2.644   2.644   2.644   2.644   2.644   2.644   2.644   2.644   2.644   2.644   2.644   2.644   2.644   2.644   2.644   2.644   2.644
    43.86    2.644   2.644   2.644   2.644   2.644   2.644   2.644   2.644   2.644   2.644   2.644   2.644   2.644   2.644   2.644   2.644   2.644   2.644   2.644   2.644   2.644   2.644   2.644   2.644   2.644   2.644   2.644   2.644   2.644   2.644   2.644   2.644   2.644   2.644   2.644   2.644
    35.29    2.644   2.644   2.644   2.644   2.644   2.644   2.644   2.644   2.644   2.644   2.644   2.644   2.644   2.644   2.644   2.644   2.644   2.644   2.644   2.644   2.644   2.644   2.644   2.644   2.644   2.644   2.644   2.644   2.644   2.644   2.644   2.644   2.644   2.644   2.644   2.644
    26.71    2.644   2.644   2.644   2.644   2.644   2.644   2.644   2.644   2.644   2.644   2.644   2.644   2.644   2.644   2.644   2.644   2.644   2.644   2.644   2.644   2.644   2.644   2.644   2.644   2.644   2.644   2.644   2.644   2.644   2.644   2.644   2.644   2.644   2.644   2.644   2.644
    18.14    2.644   2.644   2.644   2.644   2.644   2.644   2.644   2.644   2.644   2.644   2.644   2.644   2.644   2.644   2.644   2.644   2.644   2.644   2.644   2.644   2.644   2.644   2.644   2.644   2.644   2.644   2.644   2.644   2.644   2.644   2.644   2.644   2.644   2.644   2.644   2.644
     9.57    2.644   2.644   2.644   2.644   2.644   2.644   2.644   2.644   2.644   2.644   2.644   2.644   2.644   2.644   2.644   2.644   2.644   2.644   2.644   2.644   2.644   2.644   2.644   2.644   2.644   2.644   2.644   2.644   2.644   2.644   2.644   2.644   2.644   2.644   2.644   2.644
     1.00    2.644   2.644   2.644   2.644   2.644   2.644   2.644   2.644   2.644   2.644   2.644   2.644   2.644   2.644   2.644   2.644   2.644   2.644   2.644   2.644   2.644   2.644   2.644   2.644   2.644   2.644   2.644   2.644   2.644   2.644   2.644   2.644   2.644   2.644   2.644   2.644

   Mean standard deviation across all grid points:
      u component:    2.517 m/s
      v component:    2.644 m/s
      w component:    2.644 m/s


U-component (X) statistics from the interpolated hub point:

   Mean =  14.9596 m/s
   TI   =  14.4240 %


Normalizing Parameters for Binary Data (approximate statistics):

   UBar  =  14.9606 m/s
   TI(u) =  16.5947 %
   TI(v) =  17.6723 %
   TI(w) =  17.6723 %

   Height Offset =   0.0000 m
   Grid Base     =   1.0000 m

Creating a PERIODIC output file.


Processing complete.  116.83 CPU seconds used.
